
     RDKit          3D

 17 17  0  0  0  0  0  0  0  0999 V2000
   -0.3611    0.0745    0.7208 C   0  0  0  0  0  0  0  0  0  0  0  0
    0.8547   -0.2939    0.0205 C   0  0  0  0  0  0  0  0  0  0  0  0
   -1.6343   -0.7078    0.4075 C   0  0  0  0  0  0  0  0  0  0  0  0
   -2.4825    0.0222   -0.6250 C   0  0  0  0  0  0  0  0  0  0  0  0
    1.9194    0.7586   -0.0410 C   0  0  0  0  0  0  0  0  0  0  0  0
    3.2034    0.4695    0.1783 C   0  0  0  0  0  0  0  0  0  0  0  0
    0.7267   -0.8279    1.3011 O   0  0  0  0  0  0  0  0  0  0  0  0
   -0.4251    1.0436    1.2681 H   0  0  0  0  0  0  0  0  0  0  0  0
   -2.2186   -0.8140    1.3499 H   0  0  0  0  0  0  0  0  0  0  0  0
   -1.4210   -1.7394    0.0405 H   0  0  0  0  0  0  0  0  0  0  0  0
    0.8316   -1.0814   -0.7671 H   0  0  0  0  0  0  0  0  0  0  0  0
   -2.7675    1.0359   -0.2612 H   0  0  0  0  0  0  0  0  0  0  0  0
   -1.9297    0.1234   -1.5870 H   0  0  0  0  0  0  0  0  0  0  0  0
   -3.4170   -0.5511   -0.8201 H   0  0  0  0  0  0  0  0  0  0  0  0
    1.6410    1.7794   -0.3000 H   0  0  0  0  0  0  0  0  0  0  0  0
    3.5220   -0.5425    0.4239 H   0  0  0  0  0  0  0  0  0  0  0  0
    3.9580    1.2509    0.1132 H   0  0  0  0  0  0  0  0  0  0  0  0
  1  8  1  0
  1  7  1  0
  1  3  1  0
  1  2  1  0
  2  7  1  0
  2 11  1  0
  2  5  1  0
  3 10  1  0
  3  4  1  0
  3  9  1  0
  4 12  1  0
  4 14  1  0
  4 13  1  0
  5  6  2  3
  5 15  1  0
  6 17  1  0
  6 16  1  0
M  END
