
     RDKit          3D

 32 32  0  0  0  0  0  0  0  0999 V2000
    0.0591   -0.1049    0.3312 C   0  0  0  0  0  0  0  0  0  0  0  0
   -1.1836    0.3148   -0.5097 C   0  0  0  0  0  0  0  0  0  0  0  0
    1.3059   -0.2350   -0.5813 C   0  0  0  0  0  0  0  0  0  0  0  0
    0.2870    0.7607    1.5942 C   0  0  0  0  0  0  0  0  0  0  0  0
   -2.5326    0.2857    0.2394 C   0  0  0  0  0  0  0  0  0  0  0  0
    1.0551   -1.2535   -1.7084 C   0  0  0  0  0  0  0  0  0  0  0  0
    0.5811    2.2409    1.3590 C   0  0  0  0  0  0  0  0  0  0  0  0
   -2.9591   -1.0767    0.7826 C   0  0  0  0  0  0  0  0  0  0  0  0
   -1.2950   -0.4189   -1.8298 C   0  0  0  0  0  0  0  0  0  0  0  0
    2.5525   -0.6463    0.1667 C   0  0  0  0  0  0  0  0  0  0  0  0
   -0.2857   -1.1121   -2.3719 C   0  0  0  0  0  0  0  0  0  0  0  0
    3.6539    0.1078    0.2131 C   0  0  0  0  0  0  0  0  0  0  0  0
   -0.1328   -1.1344    0.7175 H   0  0  0  0  0  0  0  0  0  0  0  0
    1.4649    0.7541   -1.0758 H   0  0  0  0  0  0  0  0  0  0  0  0
   -1.0413    1.3745   -0.8239 H   0  0  0  0  0  0  0  0  0  0  0  0
    1.1224    0.3378    2.1980 H   0  0  0  0  0  0  0  0  0  0  0  0
   -0.5856    0.6790    2.2808 H   0  0  0  0  0  0  0  0  0  0  0  0
   -3.3396    0.6537   -0.4374 H   0  0  0  0  0  0  0  0  0  0  0  0
   -2.5314    1.0214    1.0753 H   0  0  0  0  0  0  0  0  0  0  0  0
    1.8440   -1.1351   -2.4873 H   0  0  0  0  0  0  0  0  0  0  0  0
    1.1166   -2.3024   -1.3343 H   0  0  0  0  0  0  0  0  0  0  0  0
    0.7845    2.7393    2.3338 H   0  0  0  0  0  0  0  0  0  0  0  0
   -0.2882    2.7632    0.9018 H   0  0  0  0  0  0  0  0  0  0  0  0
    1.4796    2.3833    0.7185 H   0  0  0  0  0  0  0  0  0  0  0  0
   -2.2926   -1.4103    1.6089 H   0  0  0  0  0  0  0  0  0  0  0  0
   -2.9662   -1.8483   -0.0200 H   0  0  0  0  0  0  0  0  0  0  0  0
   -3.9890   -1.0079    1.2008 H   0  0  0  0  0  0  0  0  0  0  0  0
    2.5509   -1.5970    0.6991 H   0  0  0  0  0  0  0  0  0  0  0  0
   -0.4469   -1.6237   -3.3198 H   0  0  0  0  0  0  0  0  0  0  0  0
   -2.2228   -0.3456   -2.3970 H   0  0  0  0  0  0  0  0  0  0  0  0
    3.7108    1.0687   -0.2953 H   0  0  0  0  0  0  0  0  0  0  0  0
    4.5240   -0.2328    0.7710 H   0  0  0  0  0  0  0  0  0  0  0  0
  1  2  1  0
  1  4  1  0
  1  3  1  0
  1 13  1  0
  2 15  1  0
  2  5  1  0
  2  9  1  0
  3  6  1  0
  3 10  1  0
  3 14  1  0
  4 17  1  0
  4 16  1  0
  4  7  1  0
  5 18  1  0
  5 19  1  0
  5  8  1  0
  6 21  1  0
  6 11  1  0
  6 20  1  0
  7 22  1  0
  7 24  1  0
  7 23  1  0
  8 25  1  0
  8 26  1  0
  8 27  1  0
  9 30  1  0
  9 11  2  0
 10 12  2  3
 10 28  1  0
 11 29  1  0
 12 31  1  0
 12 32  1  0
M  END
