
     RDKit          3D

 22 24  0  0  0  0  0  0  0  0999 V2000
    0.6616   -0.6277   -0.4201 C   0  0  0  0  0  0  0  0  0  0  0  0
   -0.7401    0.7207    0.4221 C   0  0  0  0  0  0  0  0  0  0  0  0
    0.4527    0.8591   -0.4792 C   0  0  0  0  0  0  0  0  0  0  0  0
   -0.4455   -0.7657    0.5875 C   0  0  0  0  0  0  0  0  0  0  0  0
    2.0446   -0.8187    0.1425 C   0  0  0  0  0  0  0  0  0  0  0  0
   -2.0204    0.7273   -0.3614 C   0  0  0  0  0  0  0  0  0  0  0  0
    1.6876    1.3894    0.1413 C   0  0  0  0  0  0  0  0  0  0  0  0
   -1.6791   -1.4441    0.0720 C   0  0  0  0  0  0  0  0  0  0  0  0
    2.6883    0.5233   -0.0440 C   0  0  0  0  0  0  0  0  0  0  0  0
   -2.6739   -0.5496    0.0703 C   0  0  0  0  0  0  0  0  0  0  0  0
    0.4552   -1.1012   -1.3959 H   0  0  0  0  0  0  0  0  0  0  0  0
   -0.7265    1.2859    1.3674 H   0  0  0  0  0  0  0  0  0  0  0  0
    0.2664    1.3013   -1.4709 H   0  0  0  0  0  0  0  0  0  0  0  0
   -0.1591   -1.0512    1.6131 H   0  0  0  0  0  0  0  0  0  0  0  0
    1.9531   -0.9465    1.2526 H   0  0  0  0  0  0  0  0  0  0  0  0
    2.6133   -1.6300   -0.3403 H   0  0  0  0  0  0  0  0  0  0  0  0
   -2.6587    1.6073   -0.1883 H   0  0  0  0  0  0  0  0  0  0  0  0
   -1.8088    0.5935   -1.4555 H   0  0  0  0  0  0  0  0  0  0  0  0
    3.7182    0.7193   -0.3695 H   0  0  0  0  0  0  0  0  0  0  0  0
    1.8520    2.4420    0.4073 H   0  0  0  0  0  0  0  0  0  0  0  0
   -3.7080   -0.7115    0.3787 H   0  0  0  0  0  0  0  0  0  0  0  0
   -1.7729   -2.5229    0.0703 H   0  0  0  0  0  0  0  0  0  0  0  0
  1  4  1  0
  1  3  1  0
  1  5  1  0
  1 11  1  0
  2 12  1  0
  2  3  1  0
  2  6  1  0
  2  4  1  0
  3  7  1  0
  3 13  1  0
  4 14  1  0
  4  8  1  0
  5 15  1  0
  5 16  1  0
  5  9  1  0
  6 10  1  0
  6 18  1  0
  6 17  1  0
  7 20  1  0
  7  9  2  0
  8 22  1  0
  8 10  2  0
  9 19  1  0
 10 21  1  0
M  END
