
     RDKit          3D

 22 24  0  0  0  0  0  0  0  0999 V2000
    0.6654   -0.7722   -0.4247 C   0  0  0  0  0  0  0  0  0  0  0  0
   -0.6501    0.7642    0.3955 C   0  0  0  0  0  0  0  0  0  0  0  0
    0.3974    0.7111   -0.6781 C   0  0  0  0  0  0  0  0  0  0  0  0
   -0.4107   -0.7098    0.7119 C   0  0  0  0  0  0  0  0  0  0  0  0
    2.1256   -0.8930    0.0264 C   0  0  0  0  0  0  0  0  0  0  0  0
   -2.1087    0.8827   -0.0698 C   0  0  0  0  0  0  0  0  0  0  0  0
    1.6845    1.3784   -0.3231 C   0  0  0  0  0  0  0  0  0  0  0  0
   -1.7005   -1.3775    0.3747 C   0  0  0  0  0  0  0  0  0  0  0  0
    2.6137    0.5130    0.0529 C   0  0  0  0  0  0  0  0  0  0  0  0
   -2.6156   -0.5169   -0.0428 C   0  0  0  0  0  0  0  0  0  0  0  0
    0.3990   -1.4295   -1.2868 H   0  0  0  0  0  0  0  0  0  0  0  0
   -0.4140    1.4378    1.2546 H   0  0  0  0  0  0  0  0  0  0  0  0
    0.0695    0.9304   -1.7211 H   0  0  0  0  0  0  0  0  0  0  0  0
   -0.0593   -0.8970    1.7535 H   0  0  0  0  0  0  0  0  0  0  0  0
    2.2302   -1.3705    1.0271 H   0  0  0  0  0  0  0  0  0  0  0  0
    2.7215   -1.4695   -0.7173 H   0  0  0  0  0  0  0  0  0  0  0  0
   -2.7032    1.4945    0.6464 H   0  0  0  0  0  0  0  0  0  0  0  0
   -2.2127    1.3215   -1.0884 H   0  0  0  0  0  0  0  0  0  0  0  0
    3.6200    0.8036    0.3478 H   0  0  0  0  0  0  0  0  0  0  0  0
    1.8435    2.4542   -0.3591 H   0  0  0  0  0  0  0  0  0  0  0  0
   -3.6236   -0.8063   -0.3330 H   0  0  0  0  0  0  0  0  0  0  0  0
   -1.8717   -2.4491    0.4533 H   0  0  0  0  0  0  0  0  0  0  0  0
  1  4  1  0
  1  3  1  0
  1  5  1  0
  1 11  1  0
  2 12  1  0
  2  3  1  0
  2  6  1  0
  2  4  1  0
  3  7  1  0
  3 13  1  0
  4 14  1  0
  4  8  1  0
  5 15  1  0
  5 16  1  0
  5  9  1  0
  6 10  1  0
  6 18  1  0
  6 17  1  0
  7 20  1  0
  7  9  2  0
  8 22  1  0
  8 10  2  0
  9 19  1  0
 10 21  1  0
M  END
