
     RDKit          3D

 29 29  0  0  0  0  0  0  0  0999 V2000
   -1.3970    0.9214   -0.1546 C   0  0  0  0  0  0  0  0  0  0  0  0
   -0.4204   -0.2778   -0.1261 C   0  0  0  0  0  0  0  0  0  0  0  0
    0.7102   -0.0509    0.9143 C   0  0  0  0  0  0  0  0  0  0  0  0
    1.8577   -1.0801    0.8366 C   0  0  0  0  0  0  0  0  0  0  0  0
   -0.6381    2.2285   -0.4546 C   0  0  0  0  0  0  0  0  0  0  0  0
   -2.5526    0.7519   -1.1512 C   0  0  0  0  0  0  0  0  0  0  0  0
    2.6821   -1.0668   -0.4501 C   0  0  0  0  0  0  0  0  0  0  0  0
    1.2503    1.3624    0.9303 C   0  0  0  0  0  0  0  0  0  0  0  0
   -1.1429   -1.5734    0.1683 C   0  0  0  0  0  0  0  0  0  0  0  0
    0.6402    2.3864    0.3201 C   0  0  0  0  0  0  0  0  0  0  0  0
   -1.1586   -2.6036   -0.6814 C   0  0  0  0  0  0  0  0  0  0  0  0
   -1.8541    1.0244    0.8596 H   0  0  0  0  0  0  0  0  0  0  0  0
    0.0395   -0.3172   -1.1423 H   0  0  0  0  0  0  0  0  0  0  0  0
    0.2667   -0.1725    1.9319 H   0  0  0  0  0  0  0  0  0  0  0  0
    2.5541   -0.9164    1.6927 H   0  0  0  0  0  0  0  0  0  0  0  0
    1.4587   -2.1100    0.9861 H   0  0  0  0  0  0  0  0  0  0  0  0
   -1.2968    3.0954   -0.2150 H   0  0  0  0  0  0  0  0  0  0  0  0
   -0.3751    2.3033   -1.5355 H   0  0  0  0  0  0  0  0  0  0  0  0
    3.0910   -0.0532   -0.6616 H   0  0  0  0  0  0  0  0  0  0  0  0
    3.5424   -1.7665   -0.3498 H   0  0  0  0  0  0  0  0  0  0  0  0
    2.0833   -1.4118   -1.3219 H   0  0  0  0  0  0  0  0  0  0  0  0
   -3.2090    1.6522   -1.1572 H   0  0  0  0  0  0  0  0  0  0  0  0
   -3.2033   -0.1087   -0.8760 H   0  0  0  0  0  0  0  0  0  0  0  0
   -2.1730    0.5862   -2.1855 H   0  0  0  0  0  0  0  0  0  0  0  0
   -1.6733   -1.6713    1.1150 H   0  0  0  0  0  0  0  0  0  0  0  0
    1.0986    3.3735    0.3616 H   0  0  0  0  0  0  0  0  0  0  0  0
    2.1568    1.5713    1.4981 H   0  0  0  0  0  0  0  0  0  0  0  0
   -1.6934   -3.5152   -0.4224 H   0  0  0  0  0  0  0  0  0  0  0  0
   -0.6439   -2.5611   -1.6398 H   0  0  0  0  0  0  0  0  0  0  0  0
  1  6  1  0
  1 12  1  0
  1  2  1  0
  1  5  1  0
  2  9  1  0
  2 13  1  0
  2  3  1  0
  3 14  1  0
  3  4  1  0
  3  8  1  0
  4 15  1  0
  4 16  1  0
  4  7  1  0
  5 18  1  0
  5 10  1  0
  5 17  1  0
  6 23  1  0
  6 24  1  0
  6 22  1  0
  7 19  1  0
  7 20  1  0
  7 21  1  0
  8 27  1  0
  8 10  2  0
  9 25  1  0
  9 11  2  3
 10 26  1  0
 11 28  1  0
 11 29  1  0
M  END
