
     RDKit          3D

 29 29  0  0  0  0  0  0  0  0999 V2000
   -1.2677    0.8193   -0.0820 C   0  0  0  0  0  0  0  0  0  0  0  0
   -0.4109   -0.4354   -0.2152 C   0  0  0  0  0  0  0  0  0  0  0  0
    0.7985   -0.1819    0.6798 C   0  0  0  0  0  0  0  0  0  0  0  0
    1.9594   -1.0620    0.3461 C   0  0  0  0  0  0  0  0  0  0  0  0
   -0.6453    1.9402   -0.8841 C   0  0  0  0  0  0  0  0  0  0  0  0
   -2.6971    0.5833   -0.4709 C   0  0  0  0  0  0  0  0  0  0  0  0
    3.1826   -0.3416   -0.1201 C   0  0  0  0  0  0  0  0  0  0  0  0
    1.1345    1.2770    0.6184 C   0  0  0  0  0  0  0  0  0  0  0  0
   -1.1543   -1.6401    0.2431 C   0  0  0  0  0  0  0  0  0  0  0  0
    0.7890    2.0062   -0.4508 C   0  0  0  0  0  0  0  0  0  0  0  0
   -1.7551   -2.4931   -0.5834 C   0  0  0  0  0  0  0  0  0  0  0  0
   -1.2594    1.1529    0.9888 H   0  0  0  0  0  0  0  0  0  0  0  0
   -0.0791   -0.5630   -1.2804 H   0  0  0  0  0  0  0  0  0  0  0  0
    0.4209   -0.3481    1.7245 H   0  0  0  0  0  0  0  0  0  0  0  0
    2.2353   -1.6148    1.2812 H   0  0  0  0  0  0  0  0  0  0  0  0
    1.6894   -1.8458   -0.4114 H   0  0  0  0  0  0  0  0  0  0  0  0
   -1.1409    2.8843   -0.5879 H   0  0  0  0  0  0  0  0  0  0  0  0
   -0.7391    1.6989   -1.9594 H   0  0  0  0  0  0  0  0  0  0  0  0
    3.1904    0.7414    0.0687 H   0  0  0  0  0  0  0  0  0  0  0  0
    4.1125   -0.7442    0.3637 H   0  0  0  0  0  0  0  0  0  0  0  0
    3.3266   -0.5141   -1.2155 H   0  0  0  0  0  0  0  0  0  0  0  0
   -3.2783    1.4674   -0.0926 H   0  0  0  0  0  0  0  0  0  0  0  0
   -3.0903   -0.2852    0.0835 H   0  0  0  0  0  0  0  0  0  0  0  0
   -2.7990    0.4569   -1.5673 H   0  0  0  0  0  0  0  0  0  0  0  0
   -1.5374   -1.6045    1.2710 H   0  0  0  0  0  0  0  0  0  0  0  0
    1.2965    2.9631   -0.5626 H   0  0  0  0  0  0  0  0  0  0  0  0
    1.8134    1.6561    1.3938 H   0  0  0  0  0  0  0  0  0  0  0  0
   -2.8454   -2.5950   -0.5037 H   0  0  0  0  0  0  0  0  0  0  0  0
   -1.2499   -3.3781   -0.9857 H   0  0  0  0  0  0  0  0  0  0  0  0
  1  6  1  0
  1 12  1  0
  1  2  1  0
  1  5  1  0
  2  9  1  0
  2 13  1  0
  2  3  1  0
  3 14  1  0
  3  4  1  0
  3  8  1  0
  4 15  1  0
  4 16  1  0
  4  7  1  0
  5 18  1  0
  5 10  1  0
  5 17  1  0
  6 23  1  0
  6 24  1  0
  6 22  1  0
  7 19  1  0
  7 20  1  0
  7 21  1  0
  8 27  1  0
  8 10  2  0
  9 25  1  0
  9 11  2  3
 10 26  1  0
 11 28  1  0
 11 29  1  0
M  END
