
     RDKit          3D

 24 24  0  0  0  0  0  0  0  0999 V2000
   -1.1335    0.6634    0.1274 C   0  0  0  0  0  0  0  0  0  0  0  0
   -1.8770   -0.4546   -0.5691 C   0  0  0  0  0  0  0  0  0  0  0  0
    0.1188    0.1744    0.7890 C   0  0  0  0  0  0  0  0  0  0  0  0
   -3.2293   -0.5581    0.0887 C   0  0  0  0  0  0  0  0  0  0  0  0
   -2.0701    1.0783    1.2213 C   0  0  0  0  0  0  0  0  0  0  0  0
   -3.3008    0.7526    0.8088 C   0  0  0  0  0  0  0  0  0  0  0  0
    1.3561    0.7487    0.1778 C   0  0  0  0  0  0  0  0  0  0  0  0
    2.3864   -0.0307   -0.1562 C   0  0  0  0  0  0  0  0  0  0  0  0
    3.6101    0.0227    0.6552 C   0  0  0  0  0  0  0  0  0  0  0  0
    4.5469   -0.9083    0.4636 C   0  0  0  0  0  0  0  0  0  0  0  0
   -0.9985    1.5406   -0.5233 H   0  0  0  0  0  0  0  0  0  0  0  0
   -1.9618   -0.2847   -1.6572 H   0  0  0  0  0  0  0  0  0  0  0  0
   -1.3084   -1.4128   -0.4336 H   0  0  0  0  0  0  0  0  0  0  0  0
    0.1620   -0.9404    0.6647 H   0  0  0  0  0  0  0  0  0  0  0  0
    0.1500    0.3782    1.8760 H   0  0  0  0  0  0  0  0  0  0  0  0
   -3.1893   -1.3552    0.8481 H   0  0  0  0  0  0  0  0  0  0  0  0
   -4.0381   -0.6647   -0.6523 H   0  0  0  0  0  0  0  0  0  0  0  0
   -1.8167    1.5258    2.1910 H   0  0  0  0  0  0  0  0  0  0  0  0
    1.6276    1.7829    0.4099 H   0  0  0  0  0  0  0  0  0  0  0  0
   -4.2178    1.2548    1.1309 H   0  0  0  0  0  0  0  0  0  0  0  0
    2.0984   -1.0071   -0.5605 H   0  0  0  0  0  0  0  0  0  0  0  0
    3.5111    0.3643    1.6907 H   0  0  0  0  0  0  0  0  0  0  0  0
    4.1714   -1.9351    0.4593 H   0  0  0  0  0  0  0  0  0  0  0  0
    5.4024   -0.7350   -0.1948 H   0  0  0  0  0  0  0  0  0  0  0  0
  1  5  1  0
  1  3  1  0
  1 11  1  0
  1  2  1  0
  2  4  1  0
  2 13  1  0
  2 12  1  0
  3 14  1  0
  3  7  1  0
  3 15  1  0
  4 16  1  0
  4 17  1  0
  4  6  1  0
  5  6  2  0
  5 18  1  0
  6 20  1  0
  7 19  1  0
  7  8  2  3
  8 21  1  0
  8  9  1  0
  9 10  2  3
  9 22  1  0
 10 24  1  0
 10 23  1  0
M  END
