
     RDKit          3D

 24 25  0  0  0  0  0  0  0  0999 V2000
   -1.0602    0.5468    0.6700 C   0  0  0  0  0  0  0  0  0  0  0  0
    0.0994    0.9814   -0.2172 C   0  0  0  0  0  0  0  0  0  0  0  0
   -0.3317   -0.7820    0.7914 C   0  0  0  0  0  0  0  0  0  0  0  0
    0.9476    0.0107    0.5971 C   0  0  0  0  0  0  0  0  0  0  0  0
   -2.3339    0.2291   -0.0496 C   0  0  0  0  0  0  0  0  0  0  0  0
    0.4875    2.4238   -0.0970 C   0  0  0  0  0  0  0  0  0  0  0  0
   -0.8125   -1.4872   -0.4217 C   0  0  0  0  0  0  0  0  0  0  0  0
   -2.0709   -1.0941   -0.6530 C   0  0  0  0  0  0  0  0  0  0  0  0
    1.9983   -0.6703   -0.1895 C   0  0  0  0  0  0  0  0  0  0  0  0
    2.4118   -1.9197    0.0564 C   0  0  0  0  0  0  0  0  0  0  0  0
   -1.1251    1.1458    1.5881 H   0  0  0  0  0  0  0  0  0  0  0  0
   -0.0373    0.6084   -1.2475 H   0  0  0  0  0  0  0  0  0  0  0  0
   -0.4383   -1.3072    1.7476 H   0  0  0  0  0  0  0  0  0  0  0  0
    1.2558    0.4603    1.5548 H   0  0  0  0  0  0  0  0  0  0  0  0
   -2.4816    1.0264   -0.8246 H   0  0  0  0  0  0  0  0  0  0  0  0
   -3.1627    0.2172    0.6770 H   0  0  0  0  0  0  0  0  0  0  0  0
    0.6571    2.6692    0.9666 H   0  0  0  0  0  0  0  0  0  0  0  0
   -0.3574    3.0219   -0.5317 H   0  0  0  0  0  0  0  0  0  0  0  0
    1.4272    2.5690   -0.6629 H   0  0  0  0  0  0  0  0  0  0  0  0
   -2.8710   -1.7270   -1.0488 H   0  0  0  0  0  0  0  0  0  0  0  0
   -0.2226   -1.9649   -1.2162 H   0  0  0  0  0  0  0  0  0  0  0  0
    2.7438   -0.0161   -0.6588 H   0  0  0  0  0  0  0  0  0  0  0  0
    1.7986   -2.7931   -0.1993 H   0  0  0  0  0  0  0  0  0  0  0  0
    3.4781   -2.1484    0.1820 H   0  0  0  0  0  0  0  0  0  0  0  0
  1  5  1  0
  1  2  1  0
  1 11  1  0
  1  3  1  0
  2  6  1  0
  2 12  1  0
  2  4  1  0
  3  4  1  0
  3 13  1  0
  3  7  1  0
  4  9  1  0
  4 14  1  0
  5 16  1  0
  5  8  1  0
  5 15  1  0
  6 19  1  0
  6 18  1  0
  6 17  1  0
  7  8  2  0
  7 21  1  0
  8 20  1  0
  9 22  1  0
  9 10  2  3
 10 23  1  0
 10 24  1  0
M  END
