
     RDKit          3D

 22 22  0  0  0  0  0  0  0  0999 V2000
    1.1995   -0.2787   -0.4872 C   0  0  0  0  0  0  0  0  0  0  0  0
    2.4538   -0.8313    0.1786 C   0  0  0  0  0  0  0  0  0  0  0  0
    1.5853    1.0691    0.0788 C   0  0  0  0  0  0  0  0  0  0  0  0
    3.0279    0.5759    0.0473 C   0  0  0  0  0  0  0  0  0  0  0  0
   -2.1887    0.2261   -0.4627 C   0  0  0  0  0  0  0  0  0  0  0  0
   -3.5474   -0.0709    0.1563 C   0  0  0  0  0  0  0  0  0  0  0  0
   -0.0723   -0.8312    0.0137 C   0  0  0  0  0  0  0  0  0  0  0  0
   -1.0764   -0.0770    0.4824 C   0  0  0  0  0  0  0  0  0  0  0  0
    1.3124   -0.2474   -1.6033 H   0  0  0  0  0  0  0  0  0  0  0  0
    2.2203   -1.0774    1.2309 H   0  0  0  0  0  0  0  0  0  0  0  0
    2.9970   -1.5956   -0.4050 H   0  0  0  0  0  0  0  0  0  0  0  0
    3.6454    0.9012    0.9002 H   0  0  0  0  0  0  0  0  0  0  0  0
    3.4741    0.7248   -0.9655 H   0  0  0  0  0  0  0  0  0  0  0  0
    1.4051    1.9369   -0.5775 H   0  0  0  0  0  0  0  0  0  0  0  0
    1.3061    1.2330    1.1488 H   0  0  0  0  0  0  0  0  0  0  0  0
   -2.1360   -0.3960   -1.3888 H   0  0  0  0  0  0  0  0  0  0  0  0
   -2.2190    1.2851   -0.7741 H   0  0  0  0  0  0  0  0  0  0  0  0
   -3.6902   -1.1710    0.3141 H   0  0  0  0  0  0  0  0  0  0  0  0
   -4.3208    0.2906   -0.5387 H   0  0  0  0  0  0  0  0  0  0  0  0
   -3.6304    0.4547    1.1222 H   0  0  0  0  0  0  0  0  0  0  0  0
   -1.3671   -0.3230    1.5126 H   0  0  0  0  0  0  0  0  0  0  0  0
   -0.3788   -1.7977   -0.3878 H   0  0  0  0  0  0  0  0  0  0  0  0
  1  2  1  0
  1  7  1  0
  1  3  1  0
  1  9  1  0
  2  4  1  0
  2 11  1  0
  2 10  1  0
  3 14  1  0
  3  4  1  0
  3 15  1  0
  4 12  1  0
  4 13  1  0
  5 17  1  0
  5 16  1  0
  5  6  1  0
  5  8  1  0
  6 20  1  0
  6 18  1  0
  6 19  1  0
  7  8  2  3
  7 22  1  0
  8 21  1  0
M  END
