
     RDKit          3D

 16 16  0  0  0  0  0  0  0  0999 V2000
   -1.3057    0.0268   -0.6908 C   0  0  0  0  0  0  0  0  0  0  0  0
    1.3866    0.5642   -0.4289 C   0  0  0  0  0  0  0  0  0  0  0  0
   -2.2379   -0.7529    0.2283 C   0  0  0  0  0  0  0  0  0  0  0  0
    2.2837   -0.3730    0.3673 C   0  0  0  0  0  0  0  0  0  0  0  0
    0.0025    0.5772    0.1490 C   0  0  0  0  0  0  0  0  0  0  0  0
   -0.9117    1.3117   -0.3343 C   0  0  0  0  0  0  0  0  0  0  0  0
   -1.0167   -0.3795   -1.6861 H   0  0  0  0  0  0  0  0  0  0  0  0
    1.3798    0.2331   -1.4938 H   0  0  0  0  0  0  0  0  0  0  0  0
    1.8178    1.5919   -0.3937 H   0  0  0  0  0  0  0  0  0  0  0  0
    1.8980   -1.4178    0.3301 H   0  0  0  0  0  0  0  0  0  0  0  0
    2.3558   -0.0492    1.4310 H   0  0  0  0  0  0  0  0  0  0  0  0
   -2.5545   -0.1870    1.1352 H   0  0  0  0  0  0  0  0  0  0  0  0
   -3.1547   -1.0253   -0.3405 H   0  0  0  0  0  0  0  0  0  0  0  0
   -1.7392   -1.6942    0.5520 H   0  0  0  0  0  0  0  0  0  0  0  0
    3.3104   -0.3690   -0.0641 H   0  0  0  0  0  0  0  0  0  0  0  0
   -1.5142    1.9428    0.3164 H   0  0  0  0  0  0  0  0  0  0  0  0
  1  3  1  0
  1  7  1  0
  1  5  1  0
  1  6  1  0
  2  4  1  0
  2  8  1  0
  2  5  1  0
  2  9  1  0
  3 12  1  0
  3 13  1  0
  3 14  1  0
  4 15  1  0
  4 10  1  0
  4 11  1  0
  5  6  2  0
  6 16  1  0
M  END
