
     RDKit          3D

 16 16  0  0  0  0  0  0  0  0999 V2000
   -1.3857    0.1881   -0.5651 C   0  0  0  0  0  0  0  0  0  0  0  0
    1.4769    0.4241   -0.6266 C   0  0  0  0  0  0  0  0  0  0  0  0
   -2.1650   -0.7359    0.3506 C   0  0  0  0  0  0  0  0  0  0  0  0
    2.2294   -0.6167    0.1889 C   0  0  0  0  0  0  0  0  0  0  0  0
    0.0423    0.4846   -0.2149 C   0  0  0  0  0  0  0  0  0  0  0  0
   -0.9425    1.4481    0.0905 C   0  0  0  0  0  0  0  0  0  0  0  0
   -1.7305    0.3569   -1.6051 H   0  0  0  0  0  0  0  0  0  0  0  0
    1.5823    0.2208   -1.7200 H   0  0  0  0  0  0  0  0  0  0  0  0
    2.0178    1.3866   -0.4280 H   0  0  0  0  0  0  0  0  0  0  0  0
    2.1461   -1.5744   -0.3631 H   0  0  0  0  0  0  0  0  0  0  0  0
    1.7651   -0.7613    1.1923 H   0  0  0  0  0  0  0  0  0  0  0  0
   -2.8973   -0.1031    0.9196 H   0  0  0  0  0  0  0  0  0  0  0  0
   -2.7847   -1.4704   -0.2036 H   0  0  0  0  0  0  0  0  0  0  0  0
   -1.4860   -1.2064    1.0896 H   0  0  0  0  0  0  0  0  0  0  0  0
    3.3145   -0.3384    0.2615 H   0  0  0  0  0  0  0  0  0  0  0  0
   -1.1828    2.2973    0.7106 H   0  0  0  0  0  0  0  0  0  0  0  0
  1  3  1  0
  1  7  1  0
  1  5  1  0
  1  6  1  0
  2  4  1  0
  2  8  1  0
  2  5  1  0
  2  9  1  0
  3 12  1  0
  3 13  1  0
  3 14  1  0
  4 15  1  0
  4 10  1  0
  4 11  1  0
  5  6  2  0
  6 16  1  0
M  END
