
     RDKit          3D

 24 24  0  0  0  0  0  0  0  0999 V2000
   -1.4420    0.4577    1.0464 C   0  0  0  0  0  0  0  0  0  0  0  0
   -0.6798    1.3135    0.0288 C   0  0  0  0  0  0  0  0  0  0  0  0
    2.9412    0.2534   -0.9311 C   0  0  0  0  0  0  0  0  0  0  0  0
    3.2112   -1.2284   -1.1575 C   0  0  0  0  0  0  0  0  0  0  0  0
   -1.4656   -0.9976    0.6850 C   0  0  0  0  0  0  0  0  0  0  0  0
   -2.9105    0.7544    1.0359 C   0  0  0  0  0  0  0  0  0  0  0  0
    0.7981    1.0393    0.0714 C   0  0  0  0  0  0  0  0  0  0  0  0
    1.4687    0.5469   -0.9789 C   0  0  0  0  0  0  0  0  0  0  0  0
   -2.7031   -1.4248    0.5000 C   0  0  0  0  0  0  0  0  0  0  0  0
   -3.6143   -0.3200    0.7215 C   0  0  0  0  0  0  0  0  0  0  0  0
   -1.0400    0.5981    2.0769 H   0  0  0  0  0  0  0  0  0  0  0  0
   -1.1048    1.1669   -0.9933 H   0  0  0  0  0  0  0  0  0  0  0  0
   -0.8209    2.3913    0.2745 H   0  0  0  0  0  0  0  0  0  0  0  0
    3.4436    0.8457   -1.7295 H   0  0  0  0  0  0  0  0  0  0  0  0
    3.4029    0.5552    0.0383 H   0  0  0  0  0  0  0  0  0  0  0  0
    4.3078   -1.4205   -1.1322 H   0  0  0  0  0  0  0  0  0  0  0  0
    2.8270   -1.5582   -2.1500 H   0  0  0  0  0  0  0  0  0  0  0  0
    2.7329   -1.8425   -0.3602 H   0  0  0  0  0  0  0  0  0  0  0  0
   -0.5879   -1.6291    0.5900 H   0  0  0  0  0  0  0  0  0  0  0  0
   -3.3507    1.7206    1.2613 H   0  0  0  0  0  0  0  0  0  0  0  0
    1.3217    1.2420    1.0055 H   0  0  0  0  0  0  0  0  0  0  0  0
    0.9425    0.3361   -1.9099 H   0  0  0  0  0  0  0  0  0  0  0  0
   -2.9820   -2.4389    0.2335 H   0  0  0  0  0  0  0  0  0  0  0  0
   -4.6961   -0.3610    0.6502 H   0  0  0  0  0  0  0  0  0  0  0  0
  1  6  1  0
  1  2  1  0
  1  5  1  0
  1 11  1  0
  2 13  1  0
  2 12  1  0
  2  7  1  0
  3 15  1  0
  3  8  1  0
  3  4  1  0
  3 14  1  0
  4 18  1  0
  4 16  1  0
  4 17  1  0
  5  9  2  0
  5 19  1  0
  6 20  1  0
  6 10  2  0
  7 21  1  0
  7  8  2  3
  8 22  1  0
  9 10  1  0
  9 23  1  0
 10 24  1  0
M  END
