
     RDKit          3D

 26 26  0  0  0  0  0  0  0  0999 V2000
    1.0835   -0.8653    0.0739 C   0  0  0  0  0  0  0  0  0  0  0  0
   -0.9802   -0.8315    0.0741 C   0  0  0  0  0  0  0  0  0  0  0  0
    0.0377   -1.7263   -0.6272 C   0  0  0  0  0  0  0  0  0  0  0  0
    0.0702    0.2640   -0.0898 C   0  0  0  0  0  0  0  0  0  0  0  0
    3.3858    1.4322    0.1819 C   0  0  0  0  0  0  0  0  0  0  0  0
   -3.4865    1.0536    0.7076 C   0  0  0  0  0  0  0  0  0  0  0  0
    2.3184   -0.6136   -0.6839 C   0  0  0  0  0  0  0  0  0  0  0  0
   -2.2081   -0.5455   -0.6883 C   0  0  0  0  0  0  0  0  0  0  0  0
    3.3240   -0.0563    0.0052 C   0  0  0  0  0  0  0  0  0  0  0  0
   -3.3049   -0.2689    0.0298 C   0  0  0  0  0  0  0  0  0  0  0  0
    1.1816   -1.1389    1.1351 H   0  0  0  0  0  0  0  0  0  0  0  0
   -1.1213   -1.0794    1.1491 H   0  0  0  0  0  0  0  0  0  0  0  0
   -0.0379   -2.7636   -0.2702 H   0  0  0  0  0  0  0  0  0  0  0  0
   -0.0221   -1.5608   -1.7223 H   0  0  0  0  0  0  0  0  0  0  0  0
    0.0265    0.6365   -1.1425 H   0  0  0  0  0  0  0  0  0  0  0  0
    0.0809    1.0264    0.7020 H   0  0  0  0  0  0  0  0  0  0  0  0
    2.5740    1.9533   -0.3541 H   0  0  0  0  0  0  0  0  0  0  0  0
    3.3271    1.7191    1.2657 H   0  0  0  0  0  0  0  0  0  0  0  0
   -4.3320    1.5664    0.2204 H   0  0  0  0  0  0  0  0  0  0  0  0
   -2.5974    1.7031    0.6144 H   0  0  0  0  0  0  0  0  0  0  0  0
    4.3510    1.8004   -0.2522 H   0  0  0  0  0  0  0  0  0  0  0  0
   -3.6496    0.8691    1.7850 H   0  0  0  0  0  0  0  0  0  0  0  0
    2.2590   -0.5938   -1.7681 H   0  0  0  0  0  0  0  0  0  0  0  0
   -2.1053   -0.2018   -1.7097 H   0  0  0  0  0  0  0  0  0  0  0  0
    3.6251   -0.6367    0.8880 H   0  0  0  0  0  0  0  0  0  0  0  0
   -3.7992   -1.1416    0.4761 H   0  0  0  0  0  0  0  0  0  0  0  0
  1 11  1  0
  1  4  1  0
  1  7  1  0
  1  3  1  0
  2  8  1  0
  2  4  1  0
  2 12  1  0
  2  3  1  0
  3 14  1  0
  3 13  1  0
  4 16  1  0
  4 15  1  0
  5 21  1  0
  5  9  1  0
  5 18  1  0
  5 17  1  0
  6 22  1  0
  6 19  1  0
  6 10  1  0
  6 20  1  0
  7 23  1  0
  7  9  2  3
  8 24  1  0
  8 10  2  3
  9 25  1  0
 10 26  1  0
M  END
