
     RDKit          3D

 29 29  0  0  0  0  0  0  0  0999 V2000
   -1.4561   -0.2277    0.2017 C   0  0  0  0  0  0  0  0  0  0  0  0
   -0.1967   -1.0664    0.0180 C   0  0  0  0  0  0  0  0  0  0  0  0
   -1.8698   -1.0738    1.3828 C   0  0  0  0  0  0  0  0  0  0  0  0
   -0.6873   -1.9719    1.1152 C   0  0  0  0  0  0  0  0  0  0  0  0
   -2.4422   -0.3275   -0.9388 C   0  0  0  0  0  0  0  0  0  0  0  0
    3.2041    0.6559    0.2924 C   0  0  0  0  0  0  0  0  0  0  0  0
    4.3415    0.8097   -0.6898 C   0  0  0  0  0  0  0  0  0  0  0  0
    1.0026   -0.2937    0.4770 C   0  0  0  0  0  0  0  0  0  0  0  0
    2.0116    0.0083   -0.3269 C   0  0  0  0  0  0  0  0  0  0  0  0
   -2.8791    1.0458   -1.3521 C   0  0  0  0  0  0  0  0  0  0  0  0
   -3.0376    1.9846   -0.4124 C   0  0  0  0  0  0  0  0  0  0  0  0
   -1.2451    0.8253    0.4739 H   0  0  0  0  0  0  0  0  0  0  0  0
   -0.1050   -1.5265   -0.9809 H   0  0  0  0  0  0  0  0  0  0  0  0
   -2.8632   -1.5494    1.3194 H   0  0  0  0  0  0  0  0  0  0  0  0
   -1.7962   -0.4931    2.3283 H   0  0  0  0  0  0  0  0  0  0  0  0
   -1.0303   -2.9753    0.7635 H   0  0  0  0  0  0  0  0  0  0  0  0
   -0.0231   -2.0579    2.0066 H   0  0  0  0  0  0  0  0  0  0  0  0
    3.5653   -0.0001    1.1072 H   0  0  0  0  0  0  0  0  0  0  0  0
    2.8509    1.6547    0.6590 H   0  0  0  0  0  0  0  0  0  0  0  0
   -3.3479   -0.9160   -0.6395 H   0  0  0  0  0  0  0  0  0  0  0  0
   -1.9746   -0.8737   -1.7974 H   0  0  0  0  0  0  0  0  0  0  0  0
    5.1435    1.3772   -0.1643 H   0  0  0  0  0  0  0  0  0  0  0  0
    4.0337    1.3270   -1.6257 H   0  0  0  0  0  0  0  0  0  0  0  0
    4.7172   -0.1989   -0.9420 H   0  0  0  0  0  0  0  0  0  0  0  0
    2.1435   -0.5321   -1.2505 H   0  0  0  0  0  0  0  0  0  0  0  0
    0.8564    0.2556    1.4159 H   0  0  0  0  0  0  0  0  0  0  0  0
   -2.6061    1.3979   -2.3416 H   0  0  0  0  0  0  0  0  0  0  0  0
   -4.0103    2.0064    0.0838 H   0  0  0  0  0  0  0  0  0  0  0  0
   -2.2995    2.7356   -0.1828 H   0  0  0  0  0  0  0  0  0  0  0  0
  1 12  1  0
  1  5  1  0
  1  3  1  0
  1  2  1  0
  2 13  1  0
  2  4  1  0
  2  8  1  0
  3  4  1  0
  3 15  1  0
  3 14  1  0
  4 17  1  0
  4 16  1  0
  5 10  1  0
  5 21  1  0
  5 20  1  0
  6 18  1  0
  6  7  1  0
  6  9  1  0
  6 19  1  0
  7 23  1  0
  7 22  1  0
  7 24  1  0
  8 26  1  0
  8  9  2  3
  9 25  1  0
 10 11  2  3
 10 27  1  0
 11 28  1  0
 11 29  1  0
M  END
