
     RDKit          3D

 22 22  0  0  0  0  0  0  0  0999 V2000
   -1.3304    0.6750   -0.2113 C   0  0  0  0  0  0  0  0  0  0  0  0
    3.0131   -1.0863    0.2425 C   0  0  0  0  0  0  0  0  0  0  0  0
    0.1091    0.9691   -0.1138 C   0  0  0  0  0  0  0  0  0  0  0  0
   -1.8543   -0.1047    0.9302 C   0  0  0  0  0  0  0  0  0  0  0  0
   -1.6866   -0.1235   -1.4102 C   0  0  0  0  0  0  0  0  0  0  0  0
    2.3237    0.2087    0.5414 C   0  0  0  0  0  0  0  0  0  0  0  0
    1.0063    0.1293    0.6550 C   0  0  0  0  0  0  0  0  0  0  0  0
   -2.3979   -1.2200    0.4471 C   0  0  0  0  0  0  0  0  0  0  0  0
   -2.2952   -1.2340   -1.0157 C   0  0  0  0  0  0  0  0  0  0  0  0
    0.5174    2.1791   -0.4645 C   0  0  0  0  0  0  0  0  0  0  0  0
   -1.9569    1.6057   -0.2710 H   0  0  0  0  0  0  0  0  0  0  0  0
    2.8593   -1.7106    1.1624 H   0  0  0  0  0  0  0  0  0  0  0  0
    4.1192   -0.9455    0.1783 H   0  0  0  0  0  0  0  0  0  0  0  0
    2.5805   -1.5459   -0.6671 H   0  0  0  0  0  0  0  0  0  0  0  0
   -2.1873    0.3509    1.8665 H   0  0  0  0  0  0  0  0  0  0  0  0
   -1.3518    0.1630   -2.4020 H   0  0  0  0  0  0  0  0  0  0  0  0
    2.8453    0.8262    1.2796 H   0  0  0  0  0  0  0  0  0  0  0  0
   -3.0699   -1.8864    0.9887 H   0  0  0  0  0  0  0  0  0  0  0  0
   -2.5518   -2.0174   -1.7123 H   0  0  0  0  0  0  0  0  0  0  0  0
    0.6282   -0.6086    1.3462 H   0  0  0  0  0  0  0  0  0  0  0  0
    0.4953    2.3800   -1.5397 H   0  0  0  0  0  0  0  0  0  0  0  0
    0.1849    2.9960    0.1698 H   0  0  0  0  0  0  0  0  0  0  0  0
  1  5  1  0
  1 11  1  0
  1  3  1  0
  1  4  1  0
  2  6  1  0
  2 14  1  0
  2 12  1  0
  2 13  1  0
  3 10  2  3
  3  7  1  0
  4  8  2  0
  4 15  1  0
  5 16  1  0
  5  9  2  0
  6  7  2  3
  6 17  1  0
  7 20  1  0
  8  9  1  0
  8 18  1  0
  9 19  1  0
 10 21  1  0
 10 22  1  0
M  END
