
     RDKit          3D

 27 28  0  0  0  0  0  0  0  0999 V2000
   -1.2547    0.1069   -0.4698 C   0  0  0  0  0  0  0  0  0  0  0  0
   -2.3259   -0.9993   -0.2322 C   0  0  0  0  0  0  0  0  0  0  0  0
   -0.4985   -0.4372    0.7517 C   0  0  0  0  0  0  0  0  0  0  0  0
   -1.4649   -1.5715    0.8870 C   0  0  0  0  0  0  0  0  0  0  0  0
   -1.9749    1.4488   -0.2925 C   0  0  0  0  0  0  0  0  0  0  0  0
    3.2879   -0.2867   -0.0646 C   0  0  0  0  0  0  0  0  0  0  0  0
    4.1791    0.9211   -0.3286 C   0  0  0  0  0  0  0  0  0  0  0  0
   -3.5326   -0.2372    0.2037 C   0  0  0  0  0  0  0  0  0  0  0  0
    0.9286   -0.8266    0.4659 C   0  0  0  0  0  0  0  0  0  0  0  0
   -3.3442    1.0741    0.1618 C   0  0  0  0  0  0  0  0  0  0  0  0
    1.8627    0.0995    0.2140 C   0  0  0  0  0  0  0  0  0  0  0  0
   -0.7306   -0.0078   -1.4491 H   0  0  0  0  0  0  0  0  0  0  0  0
   -2.4932   -1.6680   -1.1084 H   0  0  0  0  0  0  0  0  0  0  0  0
   -0.5490    0.2302    1.6459 H   0  0  0  0  0  0  0  0  0  0  0  0
   -1.9703   -1.6089    1.8809 H   0  0  0  0  0  0  0  0  0  0  0  0
   -1.0666   -2.5735    0.6010 H   0  0  0  0  0  0  0  0  0  0  0  0
   -1.4714    2.1117    0.4475 H   0  0  0  0  0  0  0  0  0  0  0  0
   -2.0521    1.9861   -1.2651 H   0  0  0  0  0  0  0  0  0  0  0  0
    3.6958   -0.8483    0.8077 H   0  0  0  0  0  0  0  0  0  0  0  0
    3.3214   -0.9568   -0.9548 H   0  0  0  0  0  0  0  0  0  0  0  0
    5.2216    0.5847   -0.5294 H   0  0  0  0  0  0  0  0  0  0  0  0
    4.1983    1.5995    0.5548 H   0  0  0  0  0  0  0  0  0  0  0  0
    3.8216    1.4900   -1.2173 H   0  0  0  0  0  0  0  0  0  0  0  0
   -4.1139    1.7966    0.4256 H   0  0  0  0  0  0  0  0  0  0  0  0
   -4.4664   -0.7013    0.5141 H   0  0  0  0  0  0  0  0  0  0  0  0
    1.5806    1.1533    0.2086 H   0  0  0  0  0  0  0  0  0  0  0  0
    1.2116   -1.8794    0.4791 H   0  0  0  0  0  0  0  0  0  0  0  0
  1  2  1  0
  1  5  1  0
  1  3  1  0
  1 12  1  0
  2  4  1  0
  2  8  1  0
  2 13  1  0
  3  4  1  0
  3  9  1  0
  3 14  1  0
  4 16  1  0
  4 15  1  0
  5 17  1  0
  5 10  1  0
  5 18  1  0
  6  7  1  0
  6 19  1  0
  6 11  1  0
  6 20  1  0
  7 23  1  0
  7 21  1  0
  7 22  1  0
  8 25  1  0
  8 10  2  0
  9 27  1  0
  9 11  2  3
 10 24  1  0
 11 26  1  0
M  END
