
     RDKit          3D

 23 23  0  0  0  0  0  0  0  0999 V2000
   -1.0258   -0.9179   -0.3453 C   0  0  0  0  0  0  0  0  0  0  0  0
   -1.8453    0.4090   -0.4339 C   0  0  0  0  0  0  0  0  0  0  0  0
   -2.0209   -1.4090    0.7029 C   0  0  0  0  0  0  0  0  0  0  0  0
   -2.8663   -0.1981    0.5177 C   0  0  0  0  0  0  0  0  0  0  0  0
    2.7361    0.0390   -0.2095 C   0  0  0  0  0  0  0  0  0  0  0  0
    3.1009    1.5178   -0.1821 C   0  0  0  0  0  0  0  0  0  0  0  0
    0.3896   -0.7347    0.1330 C   0  0  0  0  0  0  0  0  0  0  0  0
    1.3130   -0.1587   -0.6480 C   0  0  0  0  0  0  0  0  0  0  0  0
   -2.3931    0.6315   -1.7489 O   0  0  0  0  0  0  0  0  0  0  0  0
   -1.0768   -1.5302   -1.2777 H   0  0  0  0  0  0  0  0  0  0  0  0
   -1.3482    1.3138   -0.0070 H   0  0  0  0  0  0  0  0  0  0  0  0
   -2.5363   -2.3497    0.3975 H   0  0  0  0  0  0  0  0  0  0  0  0
   -1.6187   -1.4817    1.7410 H   0  0  0  0  0  0  0  0  0  0  0  0
   -3.8454   -0.4292    0.0355 H   0  0  0  0  0  0  0  0  0  0  0  0
   -2.9881    0.3969    1.4529 H   0  0  0  0  0  0  0  0  0  0  0  0
    2.9341   -0.3957    0.7985 H   0  0  0  0  0  0  0  0  0  0  0  0
    3.4014   -0.4906   -0.9292 H   0  0  0  0  0  0  0  0  0  0  0  0
    4.1626    1.6394    0.1308 H   0  0  0  0  0  0  0  0  0  0  0  0
    2.9829    1.9788   -1.1900 H   0  0  0  0  0  0  0  0  0  0  0  0
    2.4617    2.0684    0.5461 H   0  0  0  0  0  0  0  0  0  0  0  0
    1.0364    0.1867   -1.6445 H   0  0  0  0  0  0  0  0  0  0  0  0
    0.6655   -1.0869    1.1266 H   0  0  0  0  0  0  0  0  0  0  0  0
   -1.6192    1.0013   -2.3288 H   0  0  0  0  0  0  0  0  0  0  0  0
  1 10  1  0
  1  7  1  0
  1  2  1  0
  1  3  1  0
  2 11  1  0
  2  4  1  0
  2  9  1  0
  3 13  1  0
  3 12  1  0
  3  4  1  0
  4 14  1  0
  4 15  1  0
  5  8  1  0
  5 17  1  0
  5 16  1  0
  5  6  1  0
  6 20  1  0
  6 19  1  0
  6 18  1  0
  7 22  1  0
  7  8  2  3
  8 21  1  0
  9 23  1  0
M  END
