
     RDKit          3D

 24 24  0  0  0  0  0  0  0  0999 V2000
   -0.8407    0.7753   -0.3866 C   0  0  0  0  0  0  0  0  0  0  0  0
    0.6804    0.9173   -0.1455 C   0  0  0  0  0  0  0  0  0  0  0  0
   -1.2339   -0.4685   -1.2028 C   0  0  0  0  0  0  0  0  0  0  0  0
   -1.9979   -1.3948   -0.2567 C   0  0  0  0  0  0  0  0  0  0  0  0
    1.0449    2.2372    0.5409 C   0  0  0  0  0  0  0  0  0  0  0  0
   -1.6490    0.6264    0.8620 C   0  0  0  0  0  0  0  0  0  0  0  0
   -2.2660   -0.5421    0.9304 C   0  0  0  0  0  0  0  0  0  0  0  0
    1.2666   -0.2342    0.6300 C   0  0  0  0  0  0  0  0  0  0  0  0
    2.9908   -1.8737   -0.4373 C   0  0  0  0  0  0  0  0  0  0  0  0
    2.1310   -1.0547    0.0973 C   0  0  0  0  0  0  0  0  0  0  0  0
   -1.2057    1.6835   -0.9232 H   0  0  0  0  0  0  0  0  0  0  0  0
    1.1516    0.9718   -1.1578 H   0  0  0  0  0  0  0  0  0  0  0  0
   -1.9091   -0.1669   -2.0386 H   0  0  0  0  0  0  0  0  0  0  0  0
   -0.3735   -0.9957   -1.6771 H   0  0  0  0  0  0  0  0  0  0  0  0
   -2.9520   -1.7511   -0.7087 H   0  0  0  0  0  0  0  0  0  0  0  0
   -1.3779   -2.2674    0.0528 H   0  0  0  0  0  0  0  0  0  0  0  0
    2.1514    2.3565    0.6010 H   0  0  0  0  0  0  0  0  0  0  0  0
    0.6531    3.1064   -0.0351 H   0  0  0  0  0  0  0  0  0  0  0  0
    0.6378    2.2934    1.5763 H   0  0  0  0  0  0  0  0  0  0  0  0
   -1.7100    1.3763    1.6483 H   0  0  0  0  0  0  0  0  0  0  0  0
   -2.8722   -0.8516    1.7795 H   0  0  0  0  0  0  0  0  0  0  0  0
    0.9441   -0.4158    1.6507 H   0  0  0  0  0  0  0  0  0  0  0  0
    4.0073   -1.9109   -0.0612 H   0  0  0  0  0  0  0  0  0  0  0  0
    2.7289   -2.4168   -1.3387 H   0  0  0  0  0  0  0  0  0  0  0  0
  1  2  1  0
  1  6  1  0
  1  3  1  0
  1 11  1  0
  2  8  1  0
  2  5  1  0
  2 12  1  0
  3 13  1  0
  3 14  1  0
  3  4  1  0
  4 16  1  0
  4 15  1  0
  4  7  1  0
  5 19  1  0
  5 18  1  0
  5 17  1  0
  6  7  2  0
  6 20  1  0
  7 21  1  0
  8 22  1  0
  8 10  2  3
  9 24  1  0
  9 23  1  0
  9 10  2  3
M  END
