
     RDKit          3D

 16 16  0  0  0  0  0  0  0  0999 V2000
    0.4746   -0.0819   -0.4777 C   0  0  0  0  0  0  0  0  0  0  0  0
   -0.2848    1.2232   -0.2054 C   0  0  0  0  0  0  0  0  0  0  0  0
   -0.3816   -1.2085    0.1155 C   0  0  0  0  0  0  0  0  0  0  0  0
    1.9142   -0.0714    0.0361 C   0  0  0  0  0  0  0  0  0  0  0  0
   -1.6405    0.7583    0.1906 C   0  0  0  0  0  0  0  0  0  0  0  0
   -1.6926   -0.5525    0.3637 C   0  0  0  0  0  0  0  0  0  0  0  0
    0.5137   -0.2296   -1.5844 H   0  0  0  0  0  0  0  0  0  0  0  0
    0.1408    1.8193    0.6350 H   0  0  0  0  0  0  0  0  0  0  0  0
   -0.3410    1.8624   -1.1165 H   0  0  0  0  0  0  0  0  0  0  0  0
   -0.4969   -2.0556   -0.5994 H   0  0  0  0  0  0  0  0  0  0  0  0
    0.0048   -1.5979    1.0861 H   0  0  0  0  0  0  0  0  0  0  0  0
    2.4195   -1.0332   -0.2093 H   0  0  0  0  0  0  0  0  0  0  0  0
    1.9483    0.0730    1.1403 H   0  0  0  0  0  0  0  0  0  0  0  0
    2.4905    0.7515   -0.4449 H   0  0  0  0  0  0  0  0  0  0  0  0
   -2.4848    1.4210    0.3702 H   0  0  0  0  0  0  0  0  0  0  0  0
   -2.5842   -1.0781    0.7001 H   0  0  0  0  0  0  0  0  0  0  0  0
  1  2  1  0
  1  4  1  0
  1  7  1  0
  1  3  1  0
  2  5  1  0
  2  9  1  0
  2  8  1  0
  3 11  1  0
  3 10  1  0
  3  6  1  0
  4 14  1  0
  4 12  1  0
  4 13  1  0
  5  6  2  0
  5 15  1  0
  6 16  1  0
M  END
