
     RDKit          3D

 29 29  0  0  0  0  0  0  0  0999 V2000
   -0.7977   -0.6634    0.0085 C   0  0  0  0  0  0  0  0  0  0  0  0
    0.4266    0.0727   -0.5478 C   0  0  0  0  0  0  0  0  0  0  0  0
   -1.6568    0.5758   -0.4181 C   0  0  0  0  0  0  0  0  0  0  0  0
   -0.3539    1.3433   -0.6284 C   0  0  0  0  0  0  0  0  0  0  0  0
   -1.1739   -1.9711   -0.6982 C   0  0  0  0  0  0  0  0  0  0  0  0
   -0.2163   -3.1076   -0.3580 C   0  0  0  0  0  0  0  0  0  0  0  0
    3.9079    0.8544    0.9609 C   0  0  0  0  0  0  0  0  0  0  0  0
    1.6242    0.1076    0.3654 C   0  0  0  0  0  0  0  0  0  0  0  0
   -2.5625    1.1299    0.6487 C   0  0  0  0  0  0  0  0  0  0  0  0
    2.7112    0.8280    0.0625 C   0  0  0  0  0  0  0  0  0  0  0  0
   -3.2168    2.2807    0.4792 C   0  0  0  0  0  0  0  0  0  0  0  0
   -0.7705   -0.7928    1.1186 H   0  0  0  0  0  0  0  0  0  0  0  0
    0.7178   -0.2853   -1.5657 H   0  0  0  0  0  0  0  0  0  0  0  0
   -2.2018    0.4210   -1.3810 H   0  0  0  0  0  0  0  0  0  0  0  0
   -0.1279    2.0634    0.1957 H   0  0  0  0  0  0  0  0  0  0  0  0
   -0.2947    1.8369   -1.6263 H   0  0  0  0  0  0  0  0  0  0  0  0
   -2.2002   -2.2635   -0.3770 H   0  0  0  0  0  0  0  0  0  0  0  0
   -1.2018   -1.8396   -1.8052 H   0  0  0  0  0  0  0  0  0  0  0  0
    0.8175   -2.8720   -0.6987 H   0  0  0  0  0  0  0  0  0  0  0  0
   -0.2007   -3.2985    0.7394 H   0  0  0  0  0  0  0  0  0  0  0  0
   -0.5431   -4.0421   -0.8678 H   0  0  0  0  0  0  0  0  0  0  0  0
    4.6959    1.5108    0.5278 H   0  0  0  0  0  0  0  0  0  0  0  0
    4.3282   -0.1705    1.0750 H   0  0  0  0  0  0  0  0  0  0  0  0
    3.6299    1.2536    1.9627 H   0  0  0  0  0  0  0  0  0  0  0  0
    1.6135   -0.4842    1.2809 H   0  0  0  0  0  0  0  0  0  0  0  0
   -2.7104    0.5773    1.5755 H   0  0  0  0  0  0  0  0  0  0  0  0
    2.7385    1.4147   -0.8556 H   0  0  0  0  0  0  0  0  0  0  0  0
   -3.8738    2.6566    1.2612 H   0  0  0  0  0  0  0  0  0  0  0  0
   -3.1085    2.8638   -0.4342 H   0  0  0  0  0  0  0  0  0  0  0  0
  1  5  1  0
  1 12  1  0
  1  3  1  0
  1  2  1  0
  2 13  1  0
  2  8  1  0
  2  4  1  0
  3  9  1  0
  3 14  1  0
  3  4  1  0
  4 15  1  0
  4 16  1  0
  5 18  1  0
  5 17  1  0
  5  6  1  0
  6 20  1  0
  6 19  1  0
  6 21  1  0
  7 23  1  0
  7 10  1  0
  7 24  1  0
  7 22  1  0
  8 25  1  0
  8 10  2  3
  9 26  1  0
  9 11  2  3
 10 27  1  0
 11 28  1  0
 11 29  1  0
M  END
