
     RDKit          3D

 20 21  0  0  0  0  0  0  0  0999 V2000
    0.5052   -0.3604   -0.4540 C   0  0  0  0  0  0  0  0  0  0  0  0
   -0.5052    0.3604    0.4540 C   0  0  0  0  0  0  0  0  0  0  0  0
    1.6451   -0.9612    0.3146 C   0  0  0  0  0  0  0  0  0  0  0  0
    1.2636    0.5856   -1.3377 C   0  0  0  0  0  0  0  0  0  0  0  0
   -1.6451    0.9612   -0.3146 C   0  0  0  0  0  0  0  0  0  0  0  0
   -1.2636   -0.5856    1.3377 C   0  0  0  0  0  0  0  0  0  0  0  0
    2.8034   -0.4425   -0.0556 C   0  0  0  0  0  0  0  0  0  0  0  0
    2.5627    0.5334   -1.0982 C   0  0  0  0  0  0  0  0  0  0  0  0
   -2.8034    0.4425    0.0556 C   0  0  0  0  0  0  0  0  0  0  0  0
   -2.5627   -0.5334    1.0982 C   0  0  0  0  0  0  0  0  0  0  0  0
    0.0122   -1.1453   -1.0749 H   0  0  0  0  0  0  0  0  0  0  0  0
   -0.0122    1.1453    1.0749 H   0  0  0  0  0  0  0  0  0  0  0  0
    1.5475   -1.7311    1.0734 H   0  0  0  0  0  0  0  0  0  0  0  0
    0.8174    1.2292   -2.0891 H   0  0  0  0  0  0  0  0  0  0  0  0
   -1.5475    1.7311   -1.0734 H   0  0  0  0  0  0  0  0  0  0  0  0
   -0.8174   -1.2292    2.0891 H   0  0  0  0  0  0  0  0  0  0  0  0
    3.7711   -0.7171    0.3508 H   0  0  0  0  0  0  0  0  0  0  0  0
    3.3182    1.1193   -1.6110 H   0  0  0  0  0  0  0  0  0  0  0  0
   -3.7711    0.7171   -0.3508 H   0  0  0  0  0  0  0  0  0  0  0  0
   -3.3182   -1.1193    1.6110 H   0  0  0  0  0  0  0  0  0  0  0  0
  1  2  1  0
  1 11  1  0
  1  4  1  0
  1  3  1  0
  2 12  1  0
  2  5  1  0
  2  6  1  0
  3  7  2  0
  3 13  1  0
  4 14  1  0
  4  8  2  0
  5  9  2  0
  5 15  1  0
  6 10  2  0
  6 16  1  0
  7  8  1  0
  7 17  1  0
  8 18  1  0
  9 19  1  0
  9 10  1  0
 10 20  1  0
M  END
