
     RDKit          3D

 29 29  0  0  0  0  0  0  0  0999 V2000
   -0.1911   -0.1408   -0.4672 C   0  0  0  0  0  0  0  0  0  0  0  0
    0.6240    0.2035    0.7526 C   0  0  0  0  0  0  0  0  0  0  0  0
   -0.7755   -1.5206   -0.2120 C   0  0  0  0  0  0  0  0  0  0  0  0
    1.3280    1.5228    0.6433 C   0  0  0  0  0  0  0  0  0  0  0  0
   -1.3602    0.7982   -0.6614 C   0  0  0  0  0  0  0  0  0  0  0  0
    0.3233   -2.5662   -0.1497 C   0  0  0  0  0  0  0  0  0  0  0  0
    2.4425    1.4568   -0.3598 C   0  0  0  0  0  0  0  0  0  0  0  0
    1.6809   -0.8550    0.8706 C   0  0  0  0  0  0  0  0  0  0  0  0
    1.6573   -1.9559    0.1083 C   0  0  0  0  0  0  0  0  0  0  0  0
   -2.5312    0.4174    0.1925 C   0  0  0  0  0  0  0  0  0  0  0  0
   -3.4942    1.3436    0.2881 C   0  0  0  0  0  0  0  0  0  0  0  0
    0.4097   -0.2051   -1.3907 H   0  0  0  0  0  0  0  0  0  0  0  0
   -0.0347    0.2025    1.6339 H   0  0  0  0  0  0  0  0  0  0  0  0
   -1.5713   -1.7813   -0.9318 H   0  0  0  0  0  0  0  0  0  0  0  0
   -1.1946   -1.4744    0.8286 H   0  0  0  0  0  0  0  0  0  0  0  0
    1.7942    1.7135    1.6466 H   0  0  0  0  0  0  0  0  0  0  0  0
    0.6345    2.3712    0.4685 H   0  0  0  0  0  0  0  0  0  0  0  0
    0.0552   -3.3454    0.6045 H   0  0  0  0  0  0  0  0  0  0  0  0
    0.2932   -3.1016   -1.1366 H   0  0  0  0  0  0  0  0  0  0  0  0
   -1.0847    1.8593   -0.5300 H   0  0  0  0  0  0  0  0  0  0  0  0
   -1.7101    0.6844   -1.7217 H   0  0  0  0  0  0  0  0  0  0  0  0
    3.4491    1.4756    0.1242 H   0  0  0  0  0  0  0  0  0  0  0  0
    2.4068    0.5038   -0.9440 H   0  0  0  0  0  0  0  0  0  0  0  0
    2.3042    2.2839   -1.0760 H   0  0  0  0  0  0  0  0  0  0  0  0
    2.4931   -2.2360   -0.5463 H   0  0  0  0  0  0  0  0  0  0  0  0
    2.6652   -0.5960    1.2826 H   0  0  0  0  0  0  0  0  0  0  0  0
   -2.9055   -0.6050    0.0613 H   0  0  0  0  0  0  0  0  0  0  0  0
   -3.2767    2.3063    0.7619 H   0  0  0  0  0  0  0  0  0  0  0  0
   -4.4314    1.2404   -0.2640 H   0  0  0  0  0  0  0  0  0  0  0  0
  1  5  1  0
  1  3  1  0
  1 12  1  0
  1  2  1  0
  2  8  1  0
  2 13  1  0
  2  4  1  0
  3  6  1  0
  3 15  1  0
  3 14  1  0
  4  7  1  0
  4 17  1  0
  4 16  1  0
  5 20  1  0
  5 21  1  0
  5 10  1  0
  6 18  1  0
  6  9  1  0
  6 19  1  0
  7 22  1  0
  7 24  1  0
  7 23  1  0
  8  9  2  0
  8 26  1  0
  9 25  1  0
 10 27  1  0
 10 11  2  3
 11 28  1  0
 11 29  1  0
M  END
