
     RDKit          3D

 26 26  0  0  0  0  0  0  0  0999 V2000
   -0.0143   -1.3485    0.2669 C   0  0  0  0  0  0  0  0  0  0  0  0
   -1.1509   -0.3758   -0.0150 C   0  0  0  0  0  0  0  0  0  0  0  0
    0.8686   -0.3634   -0.4946 C   0  0  0  0  0  0  0  0  0  0  0  0
   -0.0871    0.7173    0.0020 C   0  0  0  0  0  0  0  0  0  0  0  0
   -0.1475   -2.6987   -0.3719 C   0  0  0  0  0  0  0  0  0  0  0  0
   -2.1072   -0.1801    1.1453 C   0  0  0  0  0  0  0  0  0  0  0  0
   -0.3238    1.8118   -0.9779 C   0  0  0  0  0  0  0  0  0  0  0  0
    2.2525   -0.2540    0.0022 C   0  0  0  0  0  0  0  0  0  0  0  0
   -1.0010    2.8694   -0.5422 C   0  0  0  0  0  0  0  0  0  0  0  0
    2.6533    0.7513    0.7763 C   0  0  0  0  0  0  0  0  0  0  0  0
    0.2619   -1.3739    1.3413 H   0  0  0  0  0  0  0  0  0  0  0  0
   -1.6201   -0.5518   -0.9983 H   0  0  0  0  0  0  0  0  0  0  0  0
    0.7523   -0.5239   -1.5782 H   0  0  0  0  0  0  0  0  0  0  0  0
    0.1017    1.0490    1.0489 H   0  0  0  0  0  0  0  0  0  0  0  0
   -0.9078   -2.7540   -1.1710 H   0  0  0  0  0  0  0  0  0  0  0  0
   -0.3669   -3.4663    0.4152 H   0  0  0  0  0  0  0  0  0  0  0  0
    0.8247   -3.0176   -0.8345 H   0  0  0  0  0  0  0  0  0  0  0  0
   -1.5023    0.0254    2.0410 H   0  0  0  0  0  0  0  0  0  0  0  0
   -2.7706    0.6712    0.8425 H   0  0  0  0  0  0  0  0  0  0  0  0
   -2.7766   -1.0600    1.2521 H   0  0  0  0  0  0  0  0  0  0  0  0
    0.5037    2.0175   -1.6691 H   0  0  0  0  0  0  0  0  0  0  0  0
    3.0246   -0.7882   -0.5541 H   0  0  0  0  0  0  0  0  0  0  0  0
   -0.6766    3.9027   -0.7124 H   0  0  0  0  0  0  0  0  0  0  0  0
   -1.8604    2.7749    0.1330 H   0  0  0  0  0  0  0  0  0  0  0  0
    2.9384    1.6755    0.2611 H   0  0  0  0  0  0  0  0  0  0  0  0
    3.1314    0.4904    1.7086 H   0  0  0  0  0  0  0  0  0  0  0  0
  1  3  1  0
  1  2  1  0
  1  5  1  0
  1 11  1  0
  2  6  1  0
  2 12  1  0
  2  4  1  0
  3 13  1  0
  3  8  1  0
  3  4  1  0
  4  7  1  0
  4 14  1  0
  5 15  1  0
  5 16  1  0
  5 17  1  0
  6 19  1  0
  6 20  1  0
  6 18  1  0
  7 21  1  0
  7  9  2  3
  8 10  2  3
  8 22  1  0
  9 23  1  0
  9 24  1  0
 10 26  1  0
 10 25  1  0
M  END
