
     RDKit          3D

 24 25  0  0  0  0  0  0  0  0999 V2000
    0.3276   -1.2406   -0.1799 C   0  0  0  0  0  0  0  0  0  0  0  0
   -0.3214    0.7462   -0.7221 C   0  0  0  0  0  0  0  0  0  0  0  0
    0.8342   -0.1311   -1.0987 C   0  0  0  0  0  0  0  0  0  0  0  0
   -0.7424   -0.2346    0.3776 C   0  0  0  0  0  0  0  0  0  0  0  0
    1.4777   -1.6036    0.7667 C   0  0  0  0  0  0  0  0  0  0  0  0
   -0.0279    2.1704   -0.2442 C   0  0  0  0  0  0  0  0  0  0  0  0
    2.1898    0.1900   -0.5548 C   0  0  0  0  0  0  0  0  0  0  0  0
    2.5350   -0.6072    0.4444 C   0  0  0  0  0  0  0  0  0  0  0  0
   -2.1655   -0.7157    0.2854 C   0  0  0  0  0  0  0  0  0  0  0  0
   -3.1920    0.0843    0.5814 C   0  0  0  0  0  0  0  0  0  0  0  0
   -0.0861   -2.1098   -0.7454 H   0  0  0  0  0  0  0  0  0  0  0  0
   -1.0519    0.7821   -1.5672 H   0  0  0  0  0  0  0  0  0  0  0  0
    0.8672   -0.4225   -2.1747 H   0  0  0  0  0  0  0  0  0  0  0  0
   -0.5033    0.1183    1.4100 H   0  0  0  0  0  0  0  0  0  0  0  0
    1.8644   -2.6248    0.5469 H   0  0  0  0  0  0  0  0  0  0  0  0
    1.1850   -1.5487    1.8398 H   0  0  0  0  0  0  0  0  0  0  0  0
    0.6614    2.1921    0.6306 H   0  0  0  0  0  0  0  0  0  0  0  0
    0.4285    2.7600   -1.0711 H   0  0  0  0  0  0  0  0  0  0  0  0
   -0.9775    2.6683    0.0555 H   0  0  0  0  0  0  0  0  0  0  0  0
    3.4903   -0.5424    0.9614 H   0  0  0  0  0  0  0  0  0  0  0  0
    2.8274    0.9842   -0.9379 H   0  0  0  0  0  0  0  0  0  0  0  0
   -2.3740   -1.7428   -0.0109 H   0  0  0  0  0  0  0  0  0  0  0  0
   -4.2123   -0.2884    0.5154 H   0  0  0  0  0  0  0  0  0  0  0  0
   -3.0345    1.1161    0.8919 H   0  0  0  0  0  0  0  0  0  0  0  0
  1  5  1  0
  1  4  1  0
  1 11  1  0
  1  3  1  0
  2 12  1  0
  2  6  1  0
  2  3  1  0
  2  4  1  0
  3  7  1  0
  3 13  1  0
  4 14  1  0
  4  9  1  0
  5  8  1  0
  5 16  1  0
  5 15  1  0
  6 19  1  0
  6 18  1  0
  6 17  1  0
  7 21  1  0
  7  8  2  0
  8 20  1  0
  9 22  1  0
  9 10  2  3
 10 23  1  0
 10 24  1  0
M  END
