
     RDKit          3D

 16 16  0  0  0  0  0  0  0  0999 V2000
   -0.6080   -0.2938    0.3729 C   0  0  0  0  0  0  0  0  0  0  0  0
   -2.1264   -0.3146   -0.1703 C   0  0  0  0  0  0  0  0  0  0  0  0
   -1.3472    0.9185   -0.0077 C   0  0  0  0  0  0  0  0  0  0  0  0
    0.4250   -0.8509   -0.6085 C   0  0  0  0  0  0  0  0  0  0  0  0
    1.8196   -0.4586   -0.2167 C   0  0  0  0  0  0  0  0  0  0  0  0
    2.2548    0.8023   -0.2825 C   0  0  0  0  0  0  0  0  0  0  0  0
   -0.5213   -0.5221    1.4601 H   0  0  0  0  0  0  0  0  0  0  0  0
   -1.0538    1.4106   -0.9636 H   0  0  0  0  0  0  0  0  0  0  0  0
   -2.2684   -0.6489   -1.2235 H   0  0  0  0  0  0  0  0  0  0  0  0
   -1.6613    1.5512    0.8534 H   0  0  0  0  0  0  0  0  0  0  0  0
   -2.8924   -0.4965    0.6173 H   0  0  0  0  0  0  0  0  0  0  0  0
    0.3471   -1.9615   -0.5754 H   0  0  0  0  0  0  0  0  0  0  0  0
    0.2394   -0.5530   -1.6673 H   0  0  0  0  0  0  0  0  0  0  0  0
    2.5085   -1.2348    0.1144 H   0  0  0  0  0  0  0  0  0  0  0  0
    3.2774    1.0426    0.0022 H   0  0  0  0  0  0  0  0  0  0  0  0
    1.6071    1.6095   -0.6204 H   0  0  0  0  0  0  0  0  0  0  0  0
  1  2  1  0
  1  4  1  0
  1  7  1  0
  1  3  1  0
  2 11  1  0
  2  3  1  0
  2  9  1  0
  3  8  1  0
  3 10  1  0
  4  5  1  0
  4 13  1  0
  4 12  1  0
  5  6  2  3
  5 14  1  0
  6 15  1  0
  6 16  1  0
M  END
