
     RDKit          3D

 24 24  0  0  0  0  0  0  0  0999 V2000
   -0.8222   -0.0152    0.3205 C   0  0  0  0  0  0  0  0  0  0  0  0
    0.5904    0.6099    0.3651 C   0  0  0  0  0  0  0  0  0  0  0  0
   -0.9217   -1.3047   -0.5121 C   0  0  0  0  0  0  0  0  0  0  0  0
   -1.9191    0.9061   -0.2380 C   0  0  0  0  0  0  0  0  0  0  0  0
    0.6451    1.8761    1.2271 C   0  0  0  0  0  0  0  0  0  0  0  0
   -2.2620   -1.2133   -1.1480 C   0  0  0  0  0  0  0  0  0  0  0  0
   -2.8027   -0.0159   -0.9987 C   0  0  0  0  0  0  0  0  0  0  0  0
    1.5948   -0.3757    0.9005 C   0  0  0  0  0  0  0  0  0  0  0  0
    3.5847   -1.2322   -0.5513 C   0  0  0  0  0  0  0  0  0  0  0  0
    2.5921   -0.8044    0.1750 C   0  0  0  0  0  0  0  0  0  0  0  0
   -1.1231   -0.2801    1.3647 H   0  0  0  0  0  0  0  0  0  0  0  0
    0.8648    0.9150   -0.6745 H   0  0  0  0  0  0  0  0  0  0  0  0
   -0.1572   -1.3643   -1.3212 H   0  0  0  0  0  0  0  0  0  0  0  0
   -0.8499   -2.2131    0.1295 H   0  0  0  0  0  0  0  0  0  0  0  0
   -2.4848    1.4116    0.5783 H   0  0  0  0  0  0  0  0  0  0  0  0
   -1.5304    1.6722   -0.9482 H   0  0  0  0  0  0  0  0  0  0  0  0
    0.3339    1.6697    2.2772 H   0  0  0  0  0  0  0  0  0  0  0  0
   -0.0170    2.6739    0.8211 H   0  0  0  0  0  0  0  0  0  0  0  0
    1.6756    2.3005    1.2433 H   0  0  0  0  0  0  0  0  0  0  0  0
   -2.7223   -2.0131   -1.7248 H   0  0  0  0  0  0  0  0  0  0  0  0
   -3.7544    0.2731   -1.4403 H   0  0  0  0  0  0  0  0  0  0  0  0
    1.4768   -0.7716    1.9047 H   0  0  0  0  0  0  0  0  0  0  0  0
    4.5987   -1.1687   -0.1721 H   0  0  0  0  0  0  0  0  0  0  0  0
    3.4101   -1.5358   -1.5778 H   0  0  0  0  0  0  0  0  0  0  0  0
  1  3  1  0
  1 11  1  0
  1  4  1  0
  1  2  1  0
  2  5  1  0
  2 12  1  0
  2  8  1  0
  3 14  1  0
  3  6  1  0
  3 13  1  0
  4 15  1  0
  4 16  1  0
  4  7  1  0
  5 17  1  0
  5 18  1  0
  5 19  1  0
  6  7  2  0
  6 20  1  0
  7 21  1  0
  8 10  2  3
  8 22  1  0
  9 23  1  0
  9 10  2  3
  9 24  1  0
M  END
