
     RDKit          3D

 27 27  0  0  0  0  0  0  0  0999 V2000
   -2.5630   -0.6123    0.1124 C   0  0  0  0  0  0  0  0  0  0  0  0
    3.2232   -0.3619    0.2593 C   0  0  0  0  0  0  0  0  0  0  0  0
   -1.3525   -0.9302   -0.7512 C   0  0  0  0  0  0  0  0  0  0  0  0
    2.1500   -0.9266   -0.6283 C   0  0  0  0  0  0  0  0  0  0  0  0
    3.6664    1.0272   -0.1782 C   0  0  0  0  0  0  0  0  0  0  0  0
   -3.6818   -0.0540   -0.7044 C   0  0  0  0  0  0  0  0  0  0  0  0
   -2.1851    0.6077    0.8959 C   0  0  0  0  0  0  0  0  0  0  0  0
   -0.1465   -0.5583    0.0415 C   0  0  0  0  0  0  0  0  0  0  0  0
    0.9287   -1.3207    0.1455 C   0  0  0  0  0  0  0  0  0  0  0  0
   -3.5717    1.2754   -0.7051 C   0  0  0  0  0  0  0  0  0  0  0  0
   -2.4381    1.6768    0.1379 C   0  0  0  0  0  0  0  0  0  0  0  0
   -2.8736   -1.4498    0.7532 H   0  0  0  0  0  0  0  0  0  0  0  0
    2.8939   -0.2482    1.3194 H   0  0  0  0  0  0  0  0  0  0  0  0
    4.1183   -1.0094    0.2411 H   0  0  0  0  0  0  0  0  0  0  0  0
   -1.3752   -0.3191   -1.6826 H   0  0  0  0  0  0  0  0  0  0  0  0
   -1.3913   -2.0032   -0.9938 H   0  0  0  0  0  0  0  0  0  0  0  0
    1.9052   -0.1970   -1.4415 H   0  0  0  0  0  0  0  0  0  0  0  0
    2.5259   -1.8376   -1.1624 H   0  0  0  0  0  0  0  0  0  0  0  0
    3.0822    1.8162    0.3540 H   0  0  0  0  0  0  0  0  0  0  0  0
    3.4041    1.1034   -1.2670 H   0  0  0  0  0  0  0  0  0  0  0  0
    4.7672    1.1752   -0.0285 H   0  0  0  0  0  0  0  0  0  0  0  0
   -4.6532   -0.5504   -0.7929 H   0  0  0  0  0  0  0  0  0  0  0  0
   -1.4474    0.5628    1.6925 H   0  0  0  0  0  0  0  0  0  0  0  0
   -0.0064    0.5069    0.2353 H   0  0  0  0  0  0  0  0  0  0  0  0
    1.0823   -1.8821    1.0584 H   0  0  0  0  0  0  0  0  0  0  0  0
   -4.2945    1.9938   -1.1061 H   0  0  0  0  0  0  0  0  0  0  0  0
   -1.7672    2.5155   -0.0777 H   0  0  0  0  0  0  0  0  0  0  0  0
  1 12  1  0
  1  7  1  0
  1  6  1  0
  1  3  1  0
  2  4  1  0
  2  5  1  0
  2 13  1  0
  2 14  1  0
  3 15  1  0
  3 16  1  0
  3  8  1  0
  4 17  1  0
  4 18  1  0
  4  9  1  0
  5 19  1  0
  5 21  1  0
  5 20  1  0
  6 10  2  0
  6 22  1  0
  7 23  1  0
  7 11  2  0
  8  9  2  3
  8 24  1  0
  9 25  1  0
 10 11  1  0
 10 26  1  0
 11 27  1  0
M  END
