
     RDKit          3D

 26 26  0  0  0  0  0  0  0  0999 V2000
    0.3969   -0.9965    0.2584 C   0  0  0  0  0  0  0  0  0  0  0  0
   -1.7160   -0.6884   -0.0169 C   0  0  0  0  0  0  0  0  0  0  0  0
   -0.5541    0.2042    0.2946 C   0  0  0  0  0  0  0  0  0  0  0  0
   -0.7724   -1.8464   -0.3345 C   0  0  0  0  0  0  0  0  0  0  0  0
    1.6149   -0.8508   -0.6599 C   0  0  0  0  0  0  0  0  0  0  0  0
   -2.5941   -0.2387   -1.1850 C   0  0  0  0  0  0  0  0  0  0  0  0
   -0.6244    0.8760    1.6421 C   0  0  0  0  0  0  0  0  0  0  0  0
    2.6202    0.0927   -0.0630 C   0  0  0  0  0  0  0  0  0  0  0  0
   -0.4226    2.1863    1.7973 C   0  0  0  0  0  0  0  0  0  0  0  0
    2.9782    1.2342   -0.6555 C   0  0  0  0  0  0  0  0  0  0  0  0
    0.6805   -1.3886    1.2662 H   0  0  0  0  0  0  0  0  0  0  0  0
   -2.3489   -0.9357    0.8704 H   0  0  0  0  0  0  0  0  0  0  0  0
   -0.3394    0.9283   -0.5308 H   0  0  0  0  0  0  0  0  0  0  0  0
   -0.9868   -2.7654    0.2589 H   0  0  0  0  0  0  0  0  0  0  0  0
   -0.6628   -2.0643   -1.4238 H   0  0  0  0  0  0  0  0  0  0  0  0
    2.1024   -1.8457   -0.7733 H   0  0  0  0  0  0  0  0  0  0  0  0
    1.3009   -0.5343   -1.6831 H   0  0  0  0  0  0  0  0  0  0  0  0
   -3.1483    0.6853   -0.9040 H   0  0  0  0  0  0  0  0  0  0  0  0
   -1.9989   -0.0273   -2.1032 H   0  0  0  0  0  0  0  0  0  0  0  0
   -3.3378   -1.0317   -1.4255 H   0  0  0  0  0  0  0  0  0  0  0  0
   -0.8390    0.2745    2.5252 H   0  0  0  0  0  0  0  0  0  0  0  0
    3.0669   -0.1629    0.8971 H   0  0  0  0  0  0  0  0  0  0  0  0
    3.7064    1.8891   -0.1810 H   0  0  0  0  0  0  0  0  0  0  0  0
    2.5542    1.5394   -1.6107 H   0  0  0  0  0  0  0  0  0  0  0  0
   -0.4778    2.6324    2.7885 H   0  0  0  0  0  0  0  0  0  0  0  0
   -0.1983    2.8341    0.9515 H   0  0  0  0  0  0  0  0  0  0  0  0
  1  4  1  0
  1 11  1  0
  1  3  1  0
  1  5  1  0
  2  6  1  0
  2 12  1  0
  2  3  1  0
  2  4  1  0
  3 13  1  0
  3  7  1  0
  4 14  1  0
  4 15  1  0
  5 16  1  0
  5 17  1  0
  5  8  1  0
  6 19  1  0
  6 20  1  0
  6 18  1  0
  7 21  1  0
  7  9  2  3
  8 10  2  3
  8 22  1  0
  9 25  1  0
  9 26  1  0
 10 23  1  0
 10 24  1  0
M  END
