
     RDKit          3D

 27 28  0  0  0  0  0  0  0  0999 V2000
   -2.1523    0.3604   -1.0170 C   0  0  0  0  0  0  0  0  0  0  0  0
   -1.0455   -0.5627   -0.5179 C   0  0  0  0  0  0  0  0  0  0  0  0
   -0.5685    0.4604    0.4666 C   0  0  0  0  0  0  0  0  0  0  0  0
   -1.6834    1.4146    0.0388 C   0  0  0  0  0  0  0  0  0  0  0  0
   -3.4851   -0.3481   -0.7475 C   0  0  0  0  0  0  0  0  0  0  0  0
    3.2918    0.6836    0.1723 C   0  0  0  0  0  0  0  0  0  0  0  0
    4.3541   -0.3632    0.4856 C   0  0  0  0  0  0  0  0  0  0  0  0
   -1.7781   -1.7173    0.0813 C   0  0  0  0  0  0  0  0  0  0  0  0
    0.8293    0.9585    0.2017 C   0  0  0  0  0  0  0  0  0  0  0  0
   -3.0910   -1.6015   -0.0474 C   0  0  0  0  0  0  0  0  0  0  0  0
    1.8980    0.1834    0.4282 C   0  0  0  0  0  0  0  0  0  0  0  0
   -2.0103    0.7025   -2.0695 H   0  0  0  0  0  0  0  0  0  0  0  0
   -0.3369   -0.8712   -1.3233 H   0  0  0  0  0  0  0  0  0  0  0  0
   -0.6815    0.1630    1.5375 H   0  0  0  0  0  0  0  0  0  0  0  0
   -2.4196    1.6022    0.8550 H   0  0  0  0  0  0  0  0  0  0  0  0
   -1.3537    2.3632   -0.4457 H   0  0  0  0  0  0  0  0  0  0  0  0
   -3.9909   -0.6119   -1.7041 H   0  0  0  0  0  0  0  0  0  0  0  0
   -4.1788    0.2587   -0.1224 H   0  0  0  0  0  0  0  0  0  0  0  0
    3.4818    1.5855    0.7991 H   0  0  0  0  0  0  0  0  0  0  0  0
    3.3869    0.9791   -0.8983 H   0  0  0  0  0  0  0  0  0  0  0  0
    4.3123   -0.6625    1.5582 H   0  0  0  0  0  0  0  0  0  0  0  0
    4.2166   -1.2678   -0.1500 H   0  0  0  0  0  0  0  0  0  0  0  0
    5.3665    0.0513    0.2791 H   0  0  0  0  0  0  0  0  0  0  0  0
   -3.7974   -2.3448    0.3165 H   0  0  0  0  0  0  0  0  0  0  0  0
   -1.2928   -2.5590    0.5710 H   0  0  0  0  0  0  0  0  0  0  0  0
    1.7512   -0.8306    0.8028 H   0  0  0  0  0  0  0  0  0  0  0  0
    0.9771    1.9745   -0.1647 H   0  0  0  0  0  0  0  0  0  0  0  0
  1  4  1  0
  1  5  1  0
  1  2  1  0
  1 12  1  0
  2  8  1  0
  2  3  1  0
  2 13  1  0
  3  4  1  0
  3  9  1  0
  3 14  1  0
  4 16  1  0
  4 15  1  0
  5 18  1  0
  5 17  1  0
  5 10  1  0
  6 11  1  0
  6 19  1  0
  6  7  1  0
  6 20  1  0
  7 23  1  0
  7 21  1  0
  7 22  1  0
  8 25  1  0
  8 10  2  0
  9 11  2  3
  9 27  1  0
 10 24  1  0
 11 26  1  0
M  END
