
     RDKit          3D

 16 16  0  0  0  0  0  0  0  0999 V2000
   -0.3151   -0.0292   -0.5699 C   0  0  0  0  0  0  0  0  0  0  0  0
    0.8725   -0.7653    0.0579 C   0  0  0  0  0  0  0  0  0  0  0  0
   -0.9896    1.0980    0.3335 C   0  0  0  0  0  0  0  0  0  0  0  0
    2.1442    0.0735    0.0203 C   0  0  0  0  0  0  0  0  0  0  0  0
   -1.6130   -0.7318   -0.3838 C   0  0  0  0  0  0  0  0  0  0  0  0
   -2.1583    0.1813    0.3348 C   0  0  0  0  0  0  0  0  0  0  0  0
   -0.1597    0.2680   -1.6341 H   0  0  0  0  0  0  0  0  0  0  0  0
    1.0520   -1.7069   -0.5108 H   0  0  0  0  0  0  0  0  0  0  0  0
    0.6590   -1.0518    1.1147 H   0  0  0  0  0  0  0  0  0  0  0  0
   -1.2006    2.0482   -0.2093 H   0  0  0  0  0  0  0  0  0  0  0  0
   -0.5589    1.2246    1.3542 H   0  0  0  0  0  0  0  0  0  0  0  0
    2.0193    1.0119    0.6071 H   0  0  0  0  0  0  0  0  0  0  0  0
    2.4166    0.3349   -1.0278 H   0  0  0  0  0  0  0  0  0  0  0  0
    2.9887   -0.5010    0.4640 H   0  0  0  0  0  0  0  0  0  0  0  0
   -2.0076   -1.6842   -0.7315 H   0  0  0  0  0  0  0  0  0  0  0  0
   -3.1495    0.2298    0.7806 H   0  0  0  0  0  0  0  0  0  0  0  0
  1  7  1  0
  1  2  1  0
  1  3  1  0
  1  5  1  0
  2  4  1  0
  2  8  1  0
  2  9  1  0
  3 11  1  0
  3  6  1  0
  3 10  1  0
  4 12  1  0
  4 14  1  0
  4 13  1  0
  5  6  2  0
  5 15  1  0
  6 16  1  0
M  END
