
     RDKit          3D

 16 16  0  0  0  0  0  0  0  0999 V2000
   -0.2899   -0.1283   -0.4534 C   0  0  0  0  0  0  0  0  0  0  0  0
    0.9015   -0.7749    0.2147 C   0  0  0  0  0  0  0  0  0  0  0  0
   -0.9314    0.9997    0.2960 C   0  0  0  0  0  0  0  0  0  0  0  0
    2.0847    0.1488   -0.0088 C   0  0  0  0  0  0  0  0  0  0  0  0
   -1.5769   -0.8419   -0.2929 C   0  0  0  0  0  0  0  0  0  0  0  0
   -2.1747    0.1672    0.3514 C   0  0  0  0  0  0  0  0  0  0  0  0
   -0.0151    0.1437   -1.4993 H   0  0  0  0  0  0  0  0  0  0  0  0
    1.0536   -1.7597   -0.3006 H   0  0  0  0  0  0  0  0  0  0  0  0
    0.7362   -0.9894    1.2839 H   0  0  0  0  0  0  0  0  0  0  0  0
   -1.0857    1.9381   -0.2979 H   0  0  0  0  0  0  0  0  0  0  0  0
   -0.5213    1.2354    1.2907 H   0  0  0  0  0  0  0  0  0  0  0  0
    2.0446    0.9052    0.7918 H   0  0  0  0  0  0  0  0  0  0  0  0
    1.9797    0.6472   -1.0042 H   0  0  0  0  0  0  0  0  0  0  0  0
    2.9915   -0.4772   -0.0091 H   0  0  0  0  0  0  0  0  0  0  0  0
   -1.9811   -1.7129   -0.8249 H   0  0  0  0  0  0  0  0  0  0  0  0
   -3.2158    0.4989    0.4624 H   0  0  0  0  0  0  0  0  0  0  0  0
  1  7  1  0
  1  2  1  0
  1  3  1  0
  1  5  1  0
  2  4  1  0
  2  8  1  0
  2  9  1  0
  3 11  1  0
  3  6  1  0
  3 10  1  0
  4 12  1  0
  4 14  1  0
  4 13  1  0
  5  6  2  0
  5 15  1  0
  6 16  1  0
M  END
