
     RDKit          3D

 29 29  0  0  0  0  0  0  0  0999 V2000
   -0.9383    0.4119   -0.0440 C   0  0  0  0  0  0  0  0  0  0  0  0
    0.0594   -0.6617    0.3825 C   0  0  0  0  0  0  0  0  0  0  0  0
   -1.2179   -0.4909   -1.2404 C   0  0  0  0  0  0  0  0  0  0  0  0
   -0.8788   -1.6486   -0.3058 C   0  0  0  0  0  0  0  0  0  0  0  0
    3.7087   -0.0233   -0.4913 C   0  0  0  0  0  0  0  0  0  0  0  0
    4.6526    1.0990   -0.1903 C   0  0  0  0  0  0  0  0  0  0  0  0
   -4.5853    0.2705    0.4515 C   0  0  0  0  0  0  0  0  0  0  0  0
    1.3536   -0.5623   -0.3456 C   0  0  0  0  0  0  0  0  0  0  0  0
   -2.1358    0.4432    0.8254 C   0  0  0  0  0  0  0  0  0  0  0  0
    2.3967    0.0914    0.1828 C   0  0  0  0  0  0  0  0  0  0  0  0
   -3.2790    0.9487    0.3487 C   0  0  0  0  0  0  0  0  0  0  0  0
   -0.4678    1.3789   -0.2777 H   0  0  0  0  0  0  0  0  0  0  0  0
    0.1365   -0.7964    1.4772 H   0  0  0  0  0  0  0  0  0  0  0  0
   -2.2664   -0.4466   -1.5724 H   0  0  0  0  0  0  0  0  0  0  0  0
   -0.4351   -0.3760   -2.0118 H   0  0  0  0  0  0  0  0  0  0  0  0
   -0.3386   -2.4849   -0.7900 H   0  0  0  0  0  0  0  0  0  0  0  0
   -1.7182   -1.9478    0.3585 H   0  0  0  0  0  0  0  0  0  0  0  0
    3.5030    0.0059   -1.5944 H   0  0  0  0  0  0  0  0  0  0  0  0
    4.2106   -1.0029   -0.3144 H   0  0  0  0  0  0  0  0  0  0  0  0
    4.6782    1.4065    0.8691 H   0  0  0  0  0  0  0  0  0  0  0  0
    4.4456    2.0001   -0.7981 H   0  0  0  0  0  0  0  0  0  0  0  0
    5.6762    0.7576   -0.5021 H   0  0  0  0  0  0  0  0  0  0  0  0
   -5.1682    0.6100    1.3438 H   0  0  0  0  0  0  0  0  0  0  0  0
   -5.2293    0.5011   -0.4369 H   0  0  0  0  0  0  0  0  0  0  0  0
   -4.4375   -0.8265    0.5912 H   0  0  0  0  0  0  0  0  0  0  0  0
   -2.1996   -0.2327    1.6659 H   0  0  0  0  0  0  0  0  0  0  0  0
    2.2291    0.6398    1.0977 H   0  0  0  0  0  0  0  0  0  0  0  0
    1.4393   -1.0129   -1.3435 H   0  0  0  0  0  0  0  0  0  0  0  0
   -3.1937    1.9487   -0.0894 H   0  0  0  0  0  0  0  0  0  0  0  0
  1  3  1  0
  1  9  1  0
  1  2  1  0
  1 12  1  0
  2 13  1  0
  2  8  1  0
  2  4  1  0
  3 14  1  0
  3 15  1  0
  3  4  1  0
  4 17  1  0
  4 16  1  0
  5 19  1  0
  5 10  1  0
  5  6  1  0
  5 18  1  0
  6 22  1  0
  6 21  1  0
  6 20  1  0
  7 24  1  0
  7 11  1  0
  7 25  1  0
  7 23  1  0
  8 10  2  3
  8 28  1  0
  9 26  1  0
  9 11  2  3
 10 27  1  0
 11 29  1  0
M  END
