
     RDKit          3D

 29 29  0  0  0  0  0  0  0  0999 V2000
   -2.1523   -0.6007   -0.2679 C   0  0  0  0  0  0  0  0  0  0  0  0
   -1.2549    0.4981    0.2386 C   0  0  0  0  0  0  0  0  0  0  0  0
   -0.3038    0.2619   -0.8986 C   0  0  0  0  0  0  0  0  0  0  0  0
   -1.3413   -0.6209   -1.5389 C   0  0  0  0  0  0  0  0  0  0  0  0
    3.3591    0.1991   -0.2575 C   0  0  0  0  0  0  0  0  0  0  0  0
   -2.1133   -1.8934    0.4953 C   0  0  0  0  0  0  0  0  0  0  0  0
    4.0418   -0.5671    0.8680 C   0  0  0  0  0  0  0  0  0  0  0  0
    0.9710   -0.4064   -0.5541 C   0  0  0  0  0  0  0  0  0  0  0  0
   -1.8853    1.8517    0.1035 C   0  0  0  0  0  0  0  0  0  0  0  0
    1.8987    0.3361    0.0543 C   0  0  0  0  0  0  0  0  0  0  0  0
   -2.7300    2.3271    1.0149 C   0  0  0  0  0  0  0  0  0  0  0  0
   -3.1953   -0.2353   -0.3738 H   0  0  0  0  0  0  0  0  0  0  0  0
   -0.8401    0.2878    1.2387 H   0  0  0  0  0  0  0  0  0  0  0  0
   -0.1161    1.1476   -1.5343 H   0  0  0  0  0  0  0  0  0  0  0  0
   -1.9432   -0.1408   -2.3555 H   0  0  0  0  0  0  0  0  0  0  0  0
   -0.9757   -1.6148   -1.8438 H   0  0  0  0  0  0  0  0  0  0  0  0
    3.8468    1.2054   -0.3128 H   0  0  0  0  0  0  0  0  0  0  0  0
    3.5412   -0.3164   -1.2143 H   0  0  0  0  0  0  0  0  0  0  0  0
    5.0992   -0.2398    0.9917 H   0  0  0  0  0  0  0  0  0  0  0  0
    3.9611   -1.6436    0.6120 H   0  0  0  0  0  0  0  0  0  0  0  0
    3.4984   -0.2906    1.7952 H   0  0  0  0  0  0  0  0  0  0  0  0
   -1.4799   -2.6533   -0.0335 H   0  0  0  0  0  0  0  0  0  0  0  0
   -1.7768   -1.7911    1.5419 H   0  0  0  0  0  0  0  0  0  0  0  0
   -3.1388   -2.3448    0.5417 H   0  0  0  0  0  0  0  0  0  0  0  0
   -1.9819    2.2954   -0.8961 H   0  0  0  0  0  0  0  0  0  0  0  0
    1.6742    0.9248    0.9534 H   0  0  0  0  0  0  0  0  0  0  0  0
    1.3336   -1.1550   -1.2702 H   0  0  0  0  0  0  0  0  0  0  0  0
   -3.1424    1.7632    1.8313 H   0  0  0  0  0  0  0  0  0  0  0  0
   -2.8536    3.4157    1.0708 H   0  0  0  0  0  0  0  0  0  0  0  0
  1 12  1  0
  1  6  1  0
  1  2  1  0
  1  4  1  0
  2  9  1  0
  2  3  1  0
  2 13  1  0
  3  8  1  0
  3 14  1  0
  3  4  1  0
  4 16  1  0
  4 15  1  0
  5 18  1  0
  5  7  1  0
  5 17  1  0
  5 10  1  0
  6 23  1  0
  6 24  1  0
  6 22  1  0
  7 19  1  0
  7 20  1  0
  7 21  1  0
  8 27  1  0
  8 10  2  3
  9 25  1  0
  9 11  2  3
 10 26  1  0
 11 28  1  0
 11 29  1  0
M  END
