
     RDKit          3D

 26 26  0  0  0  0  0  0  0  0999 V2000
   -1.8129    1.0223   -0.1241 C   0  0  0  0  0  0  0  0  0  0  0  0
   -0.9846   -0.2484   -0.5138 C   0  0  0  0  0  0  0  0  0  0  0  0
   -0.0308    0.0955    0.6342 C   0  0  0  0  0  0  0  0  0  0  0  0
   -0.6763    1.4309    0.8095 C   0  0  0  0  0  0  0  0  0  0  0  0
   -2.0891    1.9868   -1.2759 C   0  0  0  0  0  0  0  0  0  0  0  0
    3.7991   -0.4882    0.4326 C   0  0  0  0  0  0  0  0  0  0  0  0
    1.4179    0.1494    0.2221 C   0  0  0  0  0  0  0  0  0  0  0  0
   -1.7135   -1.5562   -0.3604 C   0  0  0  0  0  0  0  0  0  0  0  0
    2.3662   -0.5468    0.8609 C   0  0  0  0  0  0  0  0  0  0  0  0
   -1.0797   -2.7240   -0.4875 C   0  0  0  0  0  0  0  0  0  0  0  0
   -2.7433    0.7973    0.4514 H   0  0  0  0  0  0  0  0  0  0  0  0
   -0.2066   -0.5371    1.5400 H   0  0  0  0  0  0  0  0  0  0  0  0
   -0.5242   -0.1643   -1.5288 H   0  0  0  0  0  0  0  0  0  0  0  0
   -1.0223    1.6187    1.8529 H   0  0  0  0  0  0  0  0  0  0  0  0
   -0.0733    2.2914    0.4308 H   0  0  0  0  0  0  0  0  0  0  0  0
   -2.8191    1.5274   -1.9797 H   0  0  0  0  0  0  0  0  0  0  0  0
   -2.5284    2.9301   -0.8802 H   0  0  0  0  0  0  0  0  0  0  0  0
   -1.1637    2.2390   -1.8431 H   0  0  0  0  0  0  0  0  0  0  0  0
    4.1820    0.5550    0.5055 H   0  0  0  0  0  0  0  0  0  0  0  0
    4.4211   -1.1368    1.0897 H   0  0  0  0  0  0  0  0  0  0  0  0
    3.9040   -0.8480   -0.6161 H   0  0  0  0  0  0  0  0  0  0  0  0
    1.6924    0.7709   -0.6312 H   0  0  0  0  0  0  0  0  0  0  0  0
   -2.7837   -1.5615   -0.1582 H   0  0  0  0  0  0  0  0  0  0  0  0
    2.1081   -1.1774    1.7113 H   0  0  0  0  0  0  0  0  0  0  0  0
   -0.0117   -2.7679   -0.6963 H   0  0  0  0  0  0  0  0  0  0  0  0
   -1.6277   -3.6581   -0.3803 H   0  0  0  0  0  0  0  0  0  0  0  0
  1  5  1  0
  1  2  1  0
  1  4  1  0
  1 11  1  0
  2  8  1  0
  2 13  1  0
  2  3  1  0
  3  7  1  0
  3  4  1  0
  3 12  1  0
  4 15  1  0
  4 14  1  0
  5 16  1  0
  5 18  1  0
  5 17  1  0
  6 20  1  0
  6  9  1  0
  6 21  1  0
  6 19  1  0
  7  9  2  3
  7 22  1  0
  8 10  2  3
  8 23  1  0
  9 24  1  0
 10 26  1  0
 10 25  1  0
M  END
