
     RDKit          3D

 13 13  0  0  0  0  0  0  0  0999 V2000
   -0.2059   -0.8065    0.6789 C   0  0  0  0  0  0  0  0  0  0  0  0
   -1.1967   -0.0467   -0.1874 C   0  0  0  0  0  0  0  0  0  0  0  0
    1.0684   -0.5310   -0.1138 C   0  0  0  0  0  0  0  0  0  0  0  0
   -0.4410    1.2111   -0.4284 C   0  0  0  0  0  0  0  0  0  0  0  0
    0.8561    0.8972   -0.5016 C   0  0  0  0  0  0  0  0  0  0  0  0
   -0.4315   -1.8871    0.7454 H   0  0  0  0  0  0  0  0  0  0  0  0
   -0.0888   -0.3379    1.6904 H   0  0  0  0  0  0  0  0  0  0  0  0
   -1.2335   -0.5913   -1.1544 H   0  0  0  0  0  0  0  0  0  0  0  0
   -2.1710    0.1065    0.2923 H   0  0  0  0  0  0  0  0  0  0  0  0
    1.9723   -0.6775    0.5030 H   0  0  0  0  0  0  0  0  0  0  0  0
    1.0555   -1.1770   -1.0301 H   0  0  0  0  0  0  0  0  0  0  0  0
   -0.8263    2.1887   -0.1107 H   0  0  0  0  0  0  0  0  0  0  0  0
    1.6423    1.6515   -0.3835 H   0  0  0  0  0  0  0  0  0  0  0  0
  1  6  1  0
  1  2  1  0
  1  7  1  0
  1  3  1  0
  2  9  1  0
  2  8  1  0
  2  4  1  0
  3 11  1  0
  3  5  1  0
  3 10  1  0
  4 12  1  0
  4  5  2  0
  5 13  1  0
M  END
