
     RDKit          3D

 24 24  0  0  0  0  0  0  0  0999 V2000
   -1.1433   -0.1955   -0.4135 C   0  0  0  0  0  0  0  0  0  0  0  0
   -1.8575    0.2064    0.8729 C   0  0  0  0  0  0  0  0  0  0  0  0
    0.1704   -0.8615   -0.1765 C   0  0  0  0  0  0  0  0  0  0  0  0
   -2.2019   -1.1539   -0.9534 C   0  0  0  0  0  0  0  0  0  0  0  0
   -3.2038    0.5290    0.2899 C   0  0  0  0  0  0  0  0  0  0  0  0
   -3.4219   -0.3071   -0.7364 C   0  0  0  0  0  0  0  0  0  0  0  0
    1.2503    0.1561   -0.3672 C   0  0  0  0  0  0  0  0  0  0  0  0
    2.1423    0.3839    0.5987 C   0  0  0  0  0  0  0  0  0  0  0  0
    3.4315    0.9275    0.1597 C   0  0  0  0  0  0  0  0  0  0  0  0
    4.5775    0.3839    0.5100 C   0  0  0  0  0  0  0  0  0  0  0  0
   -1.0960    0.7050   -1.0534 H   0  0  0  0  0  0  0  0  0  0  0  0
   -1.3885    1.0683    1.3678 H   0  0  0  0  0  0  0  0  0  0  0  0
   -1.9398   -0.6939    1.5410 H   0  0  0  0  0  0  0  0  0  0  0  0
    0.3204   -1.5937   -1.0151 H   0  0  0  0  0  0  0  0  0  0  0  0
    0.2186   -1.3601    0.8036 H   0  0  0  0  0  0  0  0  0  0  0  0
   -2.2150   -2.0455   -0.2740 H   0  0  0  0  0  0  0  0  0  0  0  0
   -2.0371   -1.4150   -2.0064 H   0  0  0  0  0  0  0  0  0  0  0  0
   -3.5862    1.5547    0.2906 H   0  0  0  0  0  0  0  0  0  0  0  0
    1.0385    1.0297   -0.9910 H   0  0  0  0  0  0  0  0  0  0  0  0
   -4.1048   -0.0892   -1.5694 H   0  0  0  0  0  0  0  0  0  0  0  0
    1.7149    0.8220    1.5067 H   0  0  0  0  0  0  0  0  0  0  0  0
    3.4483    1.6340   -0.6749 H   0  0  0  0  0  0  0  0  0  0  0  0
    4.6171   -0.6918    0.6447 H   0  0  0  0  0  0  0  0  0  0  0  0
    5.2660    1.0070    1.0840 H   0  0  0  0  0  0  0  0  0  0  0  0
  1  2  1  0
  1 11  1  0
  1  4  1  0
  1  3  1  0
  2  5  1  0
  2 12  1  0
  2 13  1  0
  3 14  1  0
  3 15  1  0
  3  7  1  0
  4 16  1  0
  4 17  1  0
  4  6  1  0
  5  6  2  0
  5 18  1  0
  6 20  1  0
  7  8  2  3
  7 19  1  0
  8  9  1  0
  8 21  1  0
  9 22  1  0
  9 10  2  3
 10 23  1  0
 10 24  1  0
M  END
