
     RDKit          3D

 20 20  0  0  0  0  0  0  0  0999 V2000
    1.5985    0.2536    0.4166 C   0  0  0  0  0  0  0  0  0  0  0  0
   -2.2798    0.2895    0.2396 C   0  0  0  0  0  0  0  0  0  0  0  0
    2.1316   -0.8830   -0.4376 C   0  0  0  0  0  0  0  0  0  0  0  0
    2.7003    1.0620   -0.3336 C   0  0  0  0  0  0  0  0  0  0  0  0
   -2.9700   -0.7676   -0.6126 C   0  0  0  0  0  0  0  0  0  0  0  0
    0.1831    0.6628    0.1152 C   0  0  0  0  0  0  0  0  0  0  0  0
   -0.8519   -0.0866    0.5162 C   0  0  0  0  0  0  0  0  0  0  0  0
    3.1349   -0.1044   -1.0604 O   0  0  0  0  0  0  0  0  0  0  0  0
    1.8191    0.1386    1.5037 H   0  0  0  0  0  0  0  0  0  0  0  0
   -2.8129    0.3824    1.2131 H   0  0  0  0  0  0  0  0  0  0  0  0
   -2.3669    1.2748   -0.2756 H   0  0  0  0  0  0  0  0  0  0  0  0
    1.4189   -1.2826   -1.1978 H   0  0  0  0  0  0  0  0  0  0  0  0
    2.5848   -1.7010    0.1695 H   0  0  0  0  0  0  0  0  0  0  0  0
    3.5045    1.4330    0.3436 H   0  0  0  0  0  0  0  0  0  0  0  0
    2.3335    1.8491   -1.0336 H   0  0  0  0  0  0  0  0  0  0  0  0
   -2.4665   -0.8671   -1.6016 H   0  0  0  0  0  0  0  0  0  0  0  0
   -2.9672   -1.7578   -0.1018 H   0  0  0  0  0  0  0  0  0  0  0  0
   -4.0298   -0.4758   -0.7909 H   0  0  0  0  0  0  0  0  0  0  0  0
   -0.6672   -1.0107    1.0646 H   0  0  0  0  0  0  0  0  0  0  0  0
    0.0029    1.5911   -0.4262 H   0  0  0  0  0  0  0  0  0  0  0  0
  1  4  1  0
  1  3  1  0
  1  6  1  0
  1  9  1  0
  2  5  1  0
  2 11  1  0
  2 10  1  0
  2  7  1  0
  3  8  1  0
  3 13  1  0
  3 12  1  0
  4 15  1  0
  4 14  1  0
  4  8  1  0
  5 16  1  0
  5 18  1  0
  5 17  1  0
  6  7  2  3
  6 20  1  0
  7 19  1  0
M  END
