
     RDKit          3D

 20 20  0  0  0  0  0  0  0  0999 V2000
    1.5786    0.0405    0.3088 C   0  0  0  0  0  0  0  0  0  0  0  0
   -2.1808    0.3150    0.2826 C   0  0  0  0  0  0  0  0  0  0  0  0
    2.4845   -0.9730   -0.3192 C   0  0  0  0  0  0  0  0  0  0  0  0
    2.5588    1.0323   -0.2507 C   0  0  0  0  0  0  0  0  0  0  0  0
   -3.2119   -0.4009   -0.5413 C   0  0  0  0  0  0  0  0  0  0  0  0
    0.2212    0.1592   -0.3159 C   0  0  0  0  0  0  0  0  0  0  0  0
   -0.8590   -0.3583    0.2799 C   0  0  0  0  0  0  0  0  0  0  0  0
    3.5102    0.0023   -0.5842 O   0  0  0  0  0  0  0  0  0  0  0  0
    1.5643    0.0740    1.4229 H   0  0  0  0  0  0  0  0  0  0  0  0
   -2.5639    0.4531    1.3147 H   0  0  0  0  0  0  0  0  0  0  0  0
   -2.0515    1.3311   -0.1754 H   0  0  0  0  0  0  0  0  0  0  0  0
    2.1027   -1.4404   -1.2462 H   0  0  0  0  0  0  0  0  0  0  0  0
    2.9035   -1.7536    0.3500 H   0  0  0  0  0  0  0  0  0  0  0  0
    3.0228    1.7162    0.5026 H   0  0  0  0  0  0  0  0  0  0  0  0
    2.1768    1.5716   -1.1346 H   0  0  0  0  0  0  0  0  0  0  0  0
   -3.2234    0.0028   -1.5887 H   0  0  0  0  0  0  0  0  0  0  0  0
   -3.1392   -1.5001   -0.5005 H   0  0  0  0  0  0  0  0  0  0  0  0
   -4.2134   -0.1186   -0.1197 H   0  0  0  0  0  0  0  0  0  0  0  0
   -0.7092   -1.1409    1.0344 H   0  0  0  0  0  0  0  0  0  0  0  0
    0.0291    0.9878   -1.0093 H   0  0  0  0  0  0  0  0  0  0  0  0
  1  4  1  0
  1  3  1  0
  1  6  1  0
  1  9  1  0
  2  5  1  0
  2 11  1  0
  2 10  1  0
  2  7  1  0
  3  8  1  0
  3 13  1  0
  3 12  1  0
  4 15  1  0
  4 14  1  0
  4  8  1  0
  5 16  1  0
  5 18  1  0
  5 17  1  0
  6  7  2  3
  6 20  1  0
  7 19  1  0
M  END
