
     RDKit          3D

 23 23  0  0  0  0  0  0  0  0999 V2000
    2.5738   -0.5706   -0.1818 C   0  0  0  0  0  0  0  0  0  0  0  0
    0.6871   -0.4184    0.3852 C   0  0  0  0  0  0  0  0  0  0  0  0
    1.4152    0.1993   -0.8047 C   0  0  0  0  0  0  0  0  0  0  0  0
   -2.7298   -0.2279    0.6704 C   0  0  0  0  0  0  0  0  0  0  0  0
    3.9257    0.0518   -0.3717 C   0  0  0  0  0  0  0  0  0  0  0  0
   -3.9994    0.4259    0.1772 C   0  0  0  0  0  0  0  0  0  0  0  0
   -0.3966    0.4066    0.9512 C   0  0  0  0  0  0  0  0  0  0  0  0
   -1.5209    0.5503    0.2452 C   0  0  0  0  0  0  0  0  0  0  0  0
    1.9444   -0.3008    1.0923 O   0  0  0  0  0  0  0  0  0  0  0  0
    2.5240   -1.6416   -0.4652 H   0  0  0  0  0  0  0  0  0  0  0  0
    0.4646   -1.4840    0.2199 H   0  0  0  0  0  0  0  0  0  0  0  0
    1.1293   -0.1929   -1.7907 H   0  0  0  0  0  0  0  0  0  0  0  0
    1.5575    1.2862   -0.7014 H   0  0  0  0  0  0  0  0  0  0  0  0
   -2.6159   -1.2526    0.2369 H   0  0  0  0  0  0  0  0  0  0  0  0
   -2.7591   -0.3283    1.7699 H   0  0  0  0  0  0  0  0  0  0  0  0
   -4.4882    0.9300    1.0320 H   0  0  0  0  0  0  0  0  0  0  0  0
   -3.8051    1.0909   -0.6796 H   0  0  0  0  0  0  0  0  0  0  0  0
   -4.6809   -0.3939   -0.1478 H   0  0  0  0  0  0  0  0  0  0  0  0
    4.2544    0.6543    0.4915 H   0  0  0  0  0  0  0  0  0  0  0  0
    3.9656    0.6585   -1.2923 H   0  0  0  0  0  0  0  0  0  0  0  0
    4.6595   -0.7917   -0.4740 H   0  0  0  0  0  0  0  0  0  0  0  0
   -1.5709    0.9890   -0.7420 H   0  0  0  0  0  0  0  0  0  0  0  0
   -0.5346    0.3600    2.0395 H   0  0  0  0  0  0  0  0  0  0  0  0
  1  3  1  0
  1  5  1  0
  1  9  1  0
  1 10  1  0
  2  3  1  0
  2  7  1  0
  2  9  1  0
  2 11  1  0
  3 13  1  0
  3 12  1  0
  4  6  1  0
  4 15  1  0
  4 14  1  0
  4  8  1  0
  5 21  1  0
  5 19  1  0
  5 20  1  0
  6 18  1  0
  6 16  1  0
  6 17  1  0
  7 23  1  0
  7  8  2  3
  8 22  1  0
M  END
