
     RDKit          3D

 23 23  0  0  0  0  0  0  0  0999 V2000
    2.6782   -0.2073   -0.3057 C   0  0  0  0  0  0  0  0  0  0  0  0
    0.9058   -1.2000   -0.2748 C   0  0  0  0  0  0  0  0  0  0  0  0
    1.3977   -0.0872   -1.1871 C   0  0  0  0  0  0  0  0  0  0  0  0
   -2.7376   -0.3571    0.7809 C   0  0  0  0  0  0  0  0  0  0  0  0
    3.0206    1.0391    0.5045 C   0  0  0  0  0  0  0  0  0  0  0  0
   -3.3314    0.9653    0.3133 C   0  0  0  0  0  0  0  0  0  0  0  0
   -0.3039   -0.8482    0.5469 C   0  0  0  0  0  0  0  0  0  0  0  0
   -1.5126   -0.7103   -0.0134 C   0  0  0  0  0  0  0  0  0  0  0  0
    2.0792   -1.2289    0.5181 O   0  0  0  0  0  0  0  0  0  0  0  0
    3.5574   -0.6054   -0.8658 H   0  0  0  0  0  0  0  0  0  0  0  0
    0.7747   -2.1733   -0.8053 H   0  0  0  0  0  0  0  0  0  0  0  0
    1.5645   -0.4259   -2.2354 H   0  0  0  0  0  0  0  0  0  0  0  0
    0.8590    0.8854   -1.0939 H   0  0  0  0  0  0  0  0  0  0  0  0
   -3.4901   -1.1670    0.6443 H   0  0  0  0  0  0  0  0  0  0  0  0
   -2.5285   -0.2868    1.8742 H   0  0  0  0  0  0  0  0  0  0  0  0
   -2.6039    1.7969    0.4571 H   0  0  0  0  0  0  0  0  0  0  0  0
   -3.6201    0.9164   -0.7618 H   0  0  0  0  0  0  0  0  0  0  0  0
   -4.2458    1.1986    0.9045 H   0  0  0  0  0  0  0  0  0  0  0  0
    2.1471    1.3887    1.1013 H   0  0  0  0  0  0  0  0  0  0  0  0
    3.3412    1.8577   -0.1785 H   0  0  0  0  0  0  0  0  0  0  0  0
    3.8567    0.8136    1.2041 H   0  0  0  0  0  0  0  0  0  0  0  0
   -1.6273   -0.8543   -1.0880 H   0  0  0  0  0  0  0  0  0  0  0  0
   -0.1807   -0.7101    1.6210 H   0  0  0  0  0  0  0  0  0  0  0  0
  1  3  1  0
  1  5  1  0
  1  9  1  0
  1 10  1  0
  2  3  1  0
  2  7  1  0
  2  9  1  0
  2 11  1  0
  3 13  1  0
  3 12  1  0
  4  6  1  0
  4 15  1  0
  4 14  1  0
  4  8  1  0
  5 21  1  0
  5 19  1  0
  5 20  1  0
  6 18  1  0
  6 16  1  0
  6 17  1  0
  7 23  1  0
  7  8  2  3
  8 22  1  0
M  END
