
     RDKit          3D

 29 29  0  0  0  0  0  0  0  0999 V2000
    1.5053   -0.0023   -0.4636 C   0  0  0  0  0  0  0  0  0  0  0  0
   -0.5286   -0.3885   -0.5060 C   0  0  0  0  0  0  0  0  0  0  0  0
    0.6919   -1.2866   -0.3364 C   0  0  0  0  0  0  0  0  0  0  0  0
    0.3043    0.6960    0.1686 C   0  0  0  0  0  0  0  0  0  0  0  0
   -4.1736   -0.5272    0.4397 C   0  0  0  0  0  0  0  0  0  0  0  0
   -4.2723    0.8797    1.0121 C   0  0  0  0  0  0  0  0  0  0  0  0
    5.1502    0.5955    0.4687 C   0  0  0  0  0  0  0  0  0  0  0  0
   -1.7293   -0.8151    0.2415 C   0  0  0  0  0  0  0  0  0  0  0  0
    2.7480    0.0410    0.3183 C   0  0  0  0  0  0  0  0  0  0  0  0
   -2.9115   -0.5759   -0.3432 C   0  0  0  0  0  0  0  0  0  0  0  0
    3.8177    0.6438   -0.2162 C   0  0  0  0  0  0  0  0  0  0  0  0
    1.6465    0.2576   -1.5367 H   0  0  0  0  0  0  0  0  0  0  0  0
   -0.6804   -0.1659   -1.5814 H   0  0  0  0  0  0  0  0  0  0  0  0
    0.8438   -1.9512   -1.2048 H   0  0  0  0  0  0  0  0  0  0  0  0
    0.7805   -1.7590    0.6678 H   0  0  0  0  0  0  0  0  0  0  0  0
    0.3545    0.5815    1.2713 H   0  0  0  0  0  0  0  0  0  0  0  0
    0.1270    1.7197   -0.1985 H   0  0  0  0  0  0  0  0  0  0  0  0
   -5.0465   -0.7238   -0.2058 H   0  0  0  0  0  0  0  0  0  0  0  0
   -4.1915   -1.3052    1.2385 H   0  0  0  0  0  0  0  0  0  0  0  0
   -3.6152    1.0019    1.9046 H   0  0  0  0  0  0  0  0  0  0  0  0
   -3.8419    1.5688    0.2364 H   0  0  0  0  0  0  0  0  0  0  0  0
   -5.3255    1.1597    1.1969 H   0  0  0  0  0  0  0  0  0  0  0  0
    5.1464    1.3030    1.3361 H   0  0  0  0  0  0  0  0  0  0  0  0
    5.9306    0.9415   -0.2263 H   0  0  0  0  0  0  0  0  0  0  0  0
    5.3375   -0.4592    0.7997 H   0  0  0  0  0  0  0  0  0  0  0  0
    2.9347   -0.6722    1.1252 H   0  0  0  0  0  0  0  0  0  0  0  0
   -2.9980   -0.3312   -1.4078 H   0  0  0  0  0  0  0  0  0  0  0  0
   -1.7166   -1.7248    0.8571 H   0  0  0  0  0  0  0  0  0  0  0  0
    3.7121    1.2982   -1.0897 H   0  0  0  0  0  0  0  0  0  0  0  0
  1  9  1  0
  1  3  1  0
  1  4  1  0
  1 12  1  0
  2 13  1  0
  2  3  1  0
  2  4  1  0
  2  8  1  0
  3 15  1  0
  3 14  1  0
  4 16  1  0
  4 17  1  0
  5 18  1  0
  5 19  1  0
  5  6  1  0
  5 10  1  0
  6 21  1  0
  6 22  1  0
  6 20  1  0
  7 24  1  0
  7 25  1  0
  7 11  1  0
  7 23  1  0
  8 28  1  0
  8 10  2  3
  9 26  1  0
  9 11  2  3
 10 27  1  0
 11 29  1  0
M  END
