
     RDKit          3D

  9  9  0  0  0  0  0  0  0  0999 V2000
    0.6235    0.7691   -0.2027 C   0  0  0  0  0  0  0  0  0  0  0  0
   -0.6737    0.7375    0.0994 C   0  0  0  0  0  0  0  0  0  0  0  0
    1.0989   -0.6199   -0.2087 C   0  0  0  0  0  0  0  0  0  0  0  0
   -1.0939   -0.6697    0.0710 C   0  0  0  0  0  0  0  0  0  0  0  0
    0.0387   -1.3330    0.0893 C   0  0  0  0  0  0  0  0  0  0  0  0
    1.2689    1.6289   -0.0548 H   0  0  0  0  0  0  0  0  0  0  0  0
   -1.2506    1.5610    0.5317 H   0  0  0  0  0  0  0  0  0  0  0  0
    2.0832   -1.0003   -0.4385 H   0  0  0  0  0  0  0  0  0  0  0  0
   -2.0949   -1.0738    0.1718 H   0  0  0  0  0  0  0  0  0  0  0  0
  1  2  2  0
  1  6  1  0
  1  3  1  0
  2  7  1  0
  2  4  1  0
  3  8  1  0
  3  5  2  0
  4  9  1  0
  4  5  2  0
M  END
