
     RDKit          3D

 13 13  0  0  0  0  0  0  0  0999 V2000
    0.3063   -0.6607   -0.0119 C   0  0  0  0  0  0  0  0  0  0  0  0
   -0.9971   -0.3967   -0.7348 C   0  0  0  0  0  0  0  0  0  0  0  0
    1.3650    0.3905   -0.2511 C   0  0  0  0  0  0  0  0  0  0  0  0
   -0.5307   -0.2195    1.1522 C   0  0  0  0  0  0  0  0  0  0  0  0
   -1.0731    0.6736    0.3116 C   0  0  0  0  0  0  0  0  0  0  0  0
    0.6470   -1.7042    0.0146 H   0  0  0  0  0  0  0  0  0  0  0  0
   -1.7607   -1.1591   -0.5155 H   0  0  0  0  0  0  0  0  0  0  0  0
   -0.9126   -0.0425   -1.7740 H   0  0  0  0  0  0  0  0  0  0  0  0
    2.2932    0.0400    0.2755 H   0  0  0  0  0  0  0  0  0  0  0  0
    1.5831    0.4745   -1.3355 H   0  0  0  0  0  0  0  0  0  0  0  0
    1.0981    1.3590    0.1994 H   0  0  0  0  0  0  0  0  0  0  0  0
   -0.3535   -0.3414    2.2115 H   0  0  0  0  0  0  0  0  0  0  0  0
   -1.6649    1.5865    0.4579 H   0  0  0  0  0  0  0  0  0  0  0  0
  1  6  1  0
  1  3  1  0
  1  2  1  0
  1  4  1  0
  2  5  1  0
  2  7  1  0
  2  8  1  0
  3 11  1  0
  3 10  1  0
  3  9  1  0
  4  5  2  0
  4 12  1  0
  5 13  1  0
M  END
