
     RDKit          3D

 27 28  0  0  0  0  0  0  0  0999 V2000
   -0.8681   -0.3664    0.3247 C   0  0  0  0  0  0  0  0  0  0  0  0
    1.0987    0.4563    0.7063 C   0  0  0  0  0  0  0  0  0  0  0  0
    0.3780   -0.8090    1.1639 C   0  0  0  0  0  0  0  0  0  0  0  0
   -0.0113    0.7640   -0.2608 C   0  0  0  0  0  0  0  0  0  0  0  0
   -1.4353   -1.3794   -0.6799 C   0  0  0  0  0  0  0  0  0  0  0  0
    2.4356    0.0106    0.0983 C   0  0  0  0  0  0  0  0  0  0  0  0
   -2.6048   -0.8084   -1.4738 C   0  0  0  0  0  0  0  0  0  0  0  0
    1.2327   -1.9196    0.6448 C   0  0  0  0  0  0  0  0  0  0  0  0
    2.3438   -1.4752    0.0783 C   0  0  0  0  0  0  0  0  0  0  0  0
   -0.6021    2.1427   -0.1238 C   0  0  0  0  0  0  0  0  0  0  0  0
    0.0813    3.2325   -0.4805 C   0  0  0  0  0  0  0  0  0  0  0  0
    1.2165    1.1946    1.5364 H   0  0  0  0  0  0  0  0  0  0  0  0
   -1.6618   -0.0148    1.0281 H   0  0  0  0  0  0  0  0  0  0  0  0
    0.2072   -0.8619    2.2644 H   0  0  0  0  0  0  0  0  0  0  0  0
    0.2605    0.5725   -1.3274 H   0  0  0  0  0  0  0  0  0  0  0  0
   -0.6533   -1.7248   -1.3953 H   0  0  0  0  0  0  0  0  0  0  0  0
   -1.7898   -2.2750   -0.1195 H   0  0  0  0  0  0  0  0  0  0  0  0
    3.2872    0.3090    0.7512 H   0  0  0  0  0  0  0  0  0  0  0  0
    2.6075    0.4185   -0.9240 H   0  0  0  0  0  0  0  0  0  0  0  0
   -2.2837    0.0703   -2.0782 H   0  0  0  0  0  0  0  0  0  0  0  0
   -3.4317   -0.4978   -0.7953 H   0  0  0  0  0  0  0  0  0  0  0  0
   -3.0008   -1.5810   -2.1712 H   0  0  0  0  0  0  0  0  0  0  0  0
    3.1062   -2.1283   -0.3415 H   0  0  0  0  0  0  0  0  0  0  0  0
    0.9798   -2.9743    0.7301 H   0  0  0  0  0  0  0  0  0  0  0  0
   -1.6171    2.2661    0.2519 H   0  0  0  0  0  0  0  0  0  0  0  0
    1.0952    3.1610   -0.8718 H   0  0  0  0  0  0  0  0  0  0  0  0
   -0.3702    4.2178   -0.3826 H   0  0  0  0  0  0  0  0  0  0  0  0
  1 13  1  0
  1  5  1  0
  1  3  1  0
  1  4  1  0
  2  4  1  0
  2  6  1  0
  2  3  1  0
  2 12  1  0
  3  8  1  0
  3 14  1  0
  4 15  1  0
  4 10  1  0
  5  7  1  0
  5 16  1  0
  5 17  1  0
  6 19  1  0
  6 18  1  0
  6  9  1  0
  7 22  1  0
  7 20  1  0
  7 21  1  0
  8 24  1  0
  8  9  2  0
  9 23  1  0
 10 11  2  3
 10 25  1  0
 11 27  1  0
 11 26  1  0
M  END
