
     RDKit          3D

 24 24  0  0  0  0  0  0  0  0999 V2000
    0.9622   -0.2496   -0.0951 C   0  0  0  0  0  0  0  0  0  0  0  0
    2.3610   -0.5463   -0.5511 C   0  0  0  0  0  0  0  0  0  0  0  0
    3.0201    0.8277   -0.5009 C   0  0  0  0  0  0  0  0  0  0  0  0
   -3.2903    0.9825    0.1779 C   0  0  0  0  0  0  0  0  0  0  0  0
    1.2078    0.7855    0.9504 C   0  0  0  0  0  0  0  0  0  0  0  0
    0.2319   -1.4195    0.4112 C   0  0  0  0  0  0  0  0  0  0  0  0
    2.1316    1.5943    0.4136 C   0  0  0  0  0  0  0  0  0  0  0  0
   -3.1330   -0.4719   -0.0040 C   0  0  0  0  0  0  0  0  0  0  0  0
   -2.1505   -1.1351    0.6062 C   0  0  0  0  0  0  0  0  0  0  0  0
   -0.9842   -1.6507   -0.0797 C   0  0  0  0  0  0  0  0  0  0  0  0
    0.4418    0.2541   -0.9265 H   0  0  0  0  0  0  0  0  0  0  0  0
    2.8607   -1.2760    0.1123 H   0  0  0  0  0  0  0  0  0  0  0  0
    2.3333   -0.9280   -1.6073 H   0  0  0  0  0  0  0  0  0  0  0  0
    4.0360    0.7479   -0.0506 H   0  0  0  0  0  0  0  0  0  0  0  0
    3.1095    1.2836   -1.5088 H   0  0  0  0  0  0  0  0  0  0  0  0
   -2.3667    1.3992    0.6138 H   0  0  0  0  0  0  0  0  0  0  0  0
   -4.1609    1.2284    0.8397 H   0  0  0  0  0  0  0  0  0  0  0  0
   -3.4526    1.5045   -0.8003 H   0  0  0  0  0  0  0  0  0  0  0  0
    0.9356    0.7709    2.0136 H   0  0  0  0  0  0  0  0  0  0  0  0
    0.6954   -2.1503    1.0454 H   0  0  0  0  0  0  0  0  0  0  0  0
   -3.5272   -0.9487   -0.8957 H   0  0  0  0  0  0  0  0  0  0  0  0
    2.1961    2.6688    0.6319 H   0  0  0  0  0  0  0  0  0  0  0  0
   -1.0470   -1.7210   -1.1701 H   0  0  0  0  0  0  0  0  0  0  0  0
   -2.4108   -1.5502    1.5838 H   0  0  0  0  0  0  0  0  0  0  0  0
  1  5  1  0
  1  2  1  0
  1  6  1  0
  1 11  1  0
  2  3  1  0
  2 13  1  0
  2 12  1  0
  3 15  1  0
  3 14  1  0
  3  7  1  0
  4 18  1  0
  4  8  1  0
  4 16  1  0
  4 17  1  0
  5  7  2  0
  5 19  1  0
  6 20  1  0
  6 10  2  3
  7 22  1  0
  8 21  1  0
  8  9  2  3
  9 24  1  0
  9 10  1  0
 10 23  1  0
M  END
