
     RDKit          3D

 29 29  0  0  0  0  0  0  0  0999 V2000
    1.2764   -0.8910    0.0457 C   0  0  0  0  0  0  0  0  0  0  0  0
   -0.8680   -0.8865   -0.1706 C   0  0  0  0  0  0  0  0  0  0  0  0
    0.1470    0.1671    0.2817 C   0  0  0  0  0  0  0  0  0  0  0  0
    0.2376   -1.7744   -0.6435 C   0  0  0  0  0  0  0  0  0  0  0  0
    2.4342   -0.4318   -0.8485 C   0  0  0  0  0  0  0  0  0  0  0  0
   -1.8505   -0.4287   -1.2589 C   0  0  0  0  0  0  0  0  0  0  0  0
    3.3531    0.5552   -0.1375 C   0  0  0  0  0  0  0  0  0  0  0  0
   -0.0010    0.5922    1.7185 C   0  0  0  0  0  0  0  0  0  0  0  0
   -2.8164    0.6119   -0.7658 C   0  0  0  0  0  0  0  0  0  0  0  0
   -0.0597    1.8763    2.0770 C   0  0  0  0  0  0  0  0  0  0  0  0
   -3.7408    0.3547    0.1631 C   0  0  0  0  0  0  0  0  0  0  0  0
    1.6421   -1.3764    0.9836 H   0  0  0  0  0  0  0  0  0  0  0  0
   -1.4078   -1.3756    0.6775 H   0  0  0  0  0  0  0  0  0  0  0  0
    0.2187    1.0267   -0.4298 H   0  0  0  0  0  0  0  0  0  0  0  0
    0.1919   -2.8029   -0.2147 H   0  0  0  0  0  0  0  0  0  0  0  0
    0.3504   -1.8143   -1.7537 H   0  0  0  0  0  0  0  0  0  0  0  0
    3.0326   -1.3245   -1.1436 H   0  0  0  0  0  0  0  0  0  0  0  0
    2.0564    0.0369   -1.7874 H   0  0  0  0  0  0  0  0  0  0  0  0
   -2.4190   -1.3069   -1.6435 H   0  0  0  0  0  0  0  0  0  0  0  0
   -1.2955   -0.0046   -2.1284 H   0  0  0  0  0  0  0  0  0  0  0  0
    3.7859    0.1020    0.7834 H   0  0  0  0  0  0  0  0  0  0  0  0
    4.1928    0.8414   -0.8105 H   0  0  0  0  0  0  0  0  0  0  0  0
    2.8028    1.4828    0.1405 H   0  0  0  0  0  0  0  0  0  0  0  0
   -0.0644   -0.1700    2.4945 H   0  0  0  0  0  0  0  0  0  0  0  0
   -2.7693    1.6121   -1.1946 H   0  0  0  0  0  0  0  0  0  0  0  0
   -3.8358   -0.6327    0.6117 H   0  0  0  0  0  0  0  0  0  0  0  0
   -4.4232    1.1386    0.4858 H   0  0  0  0  0  0  0  0  0  0  0  0
   -0.1681    2.1447    3.1261 H   0  0  0  0  0  0  0  0  0  0  0  0
   -0.0023    2.6775    1.3420 H   0  0  0  0  0  0  0  0  0  0  0  0
  1  5  1  0
  1 12  1  0
  1  3  1  0
  1  4  1  0
  2  4  1  0
  2 13  1  0
  2  3  1  0
  2  6  1  0
  3 14  1  0
  3  8  1  0
  4 16  1  0
  4 15  1  0
  5 17  1  0
  5 18  1  0
  5  7  1  0
  6  9  1  0
  6 20  1  0
  6 19  1  0
  7 23  1  0
  7 22  1  0
  7 21  1  0
  8 10  2  3
  8 24  1  0
  9 11  2  3
  9 25  1  0
 10 29  1  0
 10 28  1  0
 11 26  1  0
 11 27  1  0
M  END
