
     RDKit          3D

 29 29  0  0  0  0  0  0  0  0999 V2000
    1.0190   -0.7096   -0.0085 C   0  0  0  0  0  0  0  0  0  0  0  0
   -0.9363   -0.3058   -0.3294 C   0  0  0  0  0  0  0  0  0  0  0  0
    0.2799    0.6116   -0.2183 C   0  0  0  0  0  0  0  0  0  0  0  0
    0.0383   -1.2289   -1.0579 C   0  0  0  0  0  0  0  0  0  0  0  0
    2.4538   -0.6788   -0.4112 C   0  0  0  0  0  0  0  0  0  0  0  0
   -2.0774    0.2183   -1.1158 C   0  0  0  0  0  0  0  0  0  0  0  0
    3.4016   -0.8370    0.7434 C   0  0  0  0  0  0  0  0  0  0  0  0
    0.1970    1.4920    0.9494 C   0  0  0  0  0  0  0  0  0  0  0  0
   -3.3137    0.1134   -0.2756 C   0  0  0  0  0  0  0  0  0  0  0  0
    0.0846    2.8148    0.8084 C   0  0  0  0  0  0  0  0  0  0  0  0
   -3.3391   -0.6307    0.8358 C   0  0  0  0  0  0  0  0  0  0  0  0
    0.7806   -1.1704    0.9687 H   0  0  0  0  0  0  0  0  0  0  0  0
   -1.1433   -0.7504    0.6640 H   0  0  0  0  0  0  0  0  0  0  0  0
    0.6308    1.0432   -1.1718 H   0  0  0  0  0  0  0  0  0  0  0  0
   -0.1926   -2.3011   -1.0019 H   0  0  0  0  0  0  0  0  0  0  0  0
    0.3579   -0.8428   -2.0610 H   0  0  0  0  0  0  0  0  0  0  0  0
    2.6170   -1.5248   -1.1290 H   0  0  0  0  0  0  0  0  0  0  0  0
    2.7148    0.2705   -0.9522 H   0  0  0  0  0  0  0  0  0  0  0  0
   -2.2562   -0.4223   -2.0130 H   0  0  0  0  0  0  0  0  0  0  0  0
   -1.9833    1.2567   -1.4700 H   0  0  0  0  0  0  0  0  0  0  0  0
    2.9042   -1.1597    1.6711 H   0  0  0  0  0  0  0  0  0  0  0  0
    4.1685   -1.6153    0.5065 H   0  0  0  0  0  0  0  0  0  0  0  0
    3.9668    0.0896    0.9479 H   0  0  0  0  0  0  0  0  0  0  0  0
    0.5450    1.1442    1.9246 H   0  0  0  0  0  0  0  0  0  0  0  0
   -4.2696    0.1755   -0.8102 H   0  0  0  0  0  0  0  0  0  0  0  0
   -3.1907   -1.6940    0.7230 H   0  0  0  0  0  0  0  0  0  0  0  0
   -3.4211   -0.1079    1.7892 H   0  0  0  0  0  0  0  0  0  0  0  0
   -0.1947    3.4507    1.6583 H   0  0  0  0  0  0  0  0  0  0  0  0
    0.1583    3.2991   -0.1645 H   0  0  0  0  0  0  0  0  0  0  0  0
  1  5  1  0
  1 12  1  0
  1  3  1  0
  1  4  1  0
  2  4  1  0
  2 13  1  0
  2  3  1  0
  2  6  1  0
  3 14  1  0
  3  8  1  0
  4 16  1  0
  4 15  1  0
  5 17  1  0
  5 18  1  0
  5  7  1  0
  6  9  1  0
  6 20  1  0
  6 19  1  0
  7 23  1  0
  7 22  1  0
  7 21  1  0
  8 10  2  3
  8 24  1  0
  9 11  2  3
  9 25  1  0
 10 29  1  0
 10 28  1  0
 11 26  1  0
 11 27  1  0
M  END
