
     RDKit          3D

 29 29  0  0  0  0  0  0  0  0999 V2000
   -0.4799    0.1602    0.0174 C   0  0  0  0  0  0  0  0  0  0  0  0
    0.3793   -0.0393   -1.1912 C   0  0  0  0  0  0  0  0  0  0  0  0
   -1.4491   -0.8391   -0.6114 C   0  0  0  0  0  0  0  0  0  0  0  0
   -0.2601   -1.4196   -1.3226 C   0  0  0  0  0  0  0  0  0  0  0  0
   -1.1934    1.4659    0.1515 C   0  0  0  0  0  0  0  0  0  0  0  0
    1.8503   -0.2216   -0.9702 C   0  0  0  0  0  0  0  0  0  0  0  0
   -0.3034    2.6644    0.2421 C   0  0  0  0  0  0  0  0  0  0  0  0
   -2.1467   -1.7186    0.3411 C   0  0  0  0  0  0  0  0  0  0  0  0
    2.4206    0.6235    0.0898 C   0  0  0  0  0  0  0  0  0  0  0  0
   -1.5763   -2.2343    1.4118 C   0  0  0  0  0  0  0  0  0  0  0  0
    2.6773    0.1112    1.2834 C   0  0  0  0  0  0  0  0  0  0  0  0
    0.0027   -0.2469    0.9240 H   0  0  0  0  0  0  0  0  0  0  0  0
    0.0726    0.5896   -2.0440 H   0  0  0  0  0  0  0  0  0  0  0  0
   -2.1274   -0.3592   -1.3363 H   0  0  0  0  0  0  0  0  0  0  0  0
   -0.4144   -1.7692   -2.3539 H   0  0  0  0  0  0  0  0  0  0  0  0
    0.2358   -2.1851   -0.6684 H   0  0  0  0  0  0  0  0  0  0  0  0
   -1.7925    1.4149    1.0921 H   0  0  0  0  0  0  0  0  0  0  0  0
   -1.9113    1.6070   -0.6701 H   0  0  0  0  0  0  0  0  0  0  0  0
    2.3594    0.0593   -1.9254 H   0  0  0  0  0  0  0  0  0  0  0  0
    2.1455   -1.2814   -0.7749 H   0  0  0  0  0  0  0  0  0  0  0  0
    0.3083    2.6888    1.1636 H   0  0  0  0  0  0  0  0  0  0  0  0
   -0.9802    3.5582    0.3074 H   0  0  0  0  0  0  0  0  0  0  0  0
    0.2710    2.7920   -0.6907 H   0  0  0  0  0  0  0  0  0  0  0  0
   -3.2323   -1.8382    0.2641 H   0  0  0  0  0  0  0  0  0  0  0  0
    2.6490    1.6564   -0.1095 H   0  0  0  0  0  0  0  0  0  0  0  0
    2.9069    0.7679    2.1226 H   0  0  0  0  0  0  0  0  0  0  0  0
    2.9497   -0.9373    1.4227 H   0  0  0  0  0  0  0  0  0  0  0  0
   -1.5568   -3.3300    1.4707 H   0  0  0  0  0  0  0  0  0  0  0  0
   -1.8045   -1.7395    2.3642 H   0  0  0  0  0  0  0  0  0  0  0  0
  1  3  1  0
  1  5  1  0
  1  2  1  0
  1 12  1  0
  2 13  1  0
  2  4  1  0
  2  6  1  0
  3 14  1  0
  3  4  1  0
  3  8  1  0
  4 15  1  0
  4 16  1  0
  5  7  1  0
  5 17  1  0
  5 18  1  0
  6  9  1  0
  6 20  1  0
  6 19  1  0
  7 21  1  0
  7 23  1  0
  7 22  1  0
  8 10  2  3
  8 24  1  0
  9 11  2  3
  9 25  1  0
 10 29  1  0
 10 28  1  0
 11 26  1  0
 11 27  1  0
M  END
