
     RDKit          3D

 29 29  0  0  0  0  0  0  0  0999 V2000
   -0.4646    0.1675    0.2236 C   0  0  0  0  0  0  0  0  0  0  0  0
    0.0528    0.0403   -1.2154 C   0  0  0  0  0  0  0  0  0  0  0  0
   -1.7474   -0.6175   -0.2133 C   0  0  0  0  0  0  0  0  0  0  0  0
   -1.1229   -0.8028   -1.5938 C   0  0  0  0  0  0  0  0  0  0  0  0
   -0.7583    1.5926    0.7112 C   0  0  0  0  0  0  0  0  0  0  0  0
    1.4077   -0.6683   -1.3571 C   0  0  0  0  0  0  0  0  0  0  0  0
    0.5064    2.3865    1.0170 C   0  0  0  0  0  0  0  0  0  0  0  0
   -1.9911   -1.8844    0.5631 C   0  0  0  0  0  0  0  0  0  0  0  0
    2.5371    0.2133   -0.9061 C   0  0  0  0  0  0  0  0  0  0  0  0
   -2.4019   -1.8514    1.8325 C   0  0  0  0  0  0  0  0  0  0  0  0
    3.3254   -0.0948    0.1263 C   0  0  0  0  0  0  0  0  0  0  0  0
    0.1481   -0.3961    0.9696 H   0  0  0  0  0  0  0  0  0  0  0  0
    0.0400    1.0042   -1.7808 H   0  0  0  0  0  0  0  0  0  0  0  0
   -2.6716    0.0068   -0.2723 H   0  0  0  0  0  0  0  0  0  0  0  0
   -1.7400   -0.3393   -2.3992 H   0  0  0  0  0  0  0  0  0  0  0  0
   -0.8766   -1.8593   -1.8567 H   0  0  0  0  0  0  0  0  0  0  0  0
   -1.3622    1.5245    1.6454 H   0  0  0  0  0  0  0  0  0  0  0  0
   -1.3684    2.1566   -0.0327 H   0  0  0  0  0  0  0  0  0  0  0  0
    1.5806   -0.9106   -2.4306 H   0  0  0  0  0  0  0  0  0  0  0  0
    1.3994   -1.6431   -0.8128 H   0  0  0  0  0  0  0  0  0  0  0  0
    1.1440    1.8535    1.7588 H   0  0  0  0  0  0  0  0  0  0  0  0
    0.2345    3.3788    1.4429 H   0  0  0  0  0  0  0  0  0  0  0  0
    1.0956    2.5668    0.0901 H   0  0  0  0  0  0  0  0  0  0  0  0
   -1.8470   -2.8542    0.0886 H   0  0  0  0  0  0  0  0  0  0  0  0
    2.7125    1.1463   -1.4403 H   0  0  0  0  0  0  0  0  0  0  0  0
    4.1270    0.5802    0.4196 H   0  0  0  0  0  0  0  0  0  0  0  0
    3.1856   -1.0105    0.6983 H   0  0  0  0  0  0  0  0  0  0  0  0
   -2.5785   -2.7784    2.3745 H   0  0  0  0  0  0  0  0  0  0  0  0
   -2.5664   -0.9072    2.3495 H   0  0  0  0  0  0  0  0  0  0  0  0
  1  3  1  0
  1  5  1  0
  1  2  1  0
  1 12  1  0
  2 13  1  0
  2  4  1  0
  2  6  1  0
  3 14  1  0
  3  4  1  0
  3  8  1  0
  4 15  1  0
  4 16  1  0
  5  7  1  0
  5 17  1  0
  5 18  1  0
  6  9  1  0
  6 20  1  0
  6 19  1  0
  7 21  1  0
  7 23  1  0
  7 22  1  0
  8 10  2  3
  8 24  1  0
  9 11  2  3
  9 25  1  0
 10 29  1  0
 10 28  1  0
 11 26  1  0
 11 27  1  0
M  END
