
     RDKit          3D

 24 24  0  0  0  0  0  0  0  0999 V2000
   -1.1962   -0.6374   -0.2168 C   0  0  0  0  0  0  0  0  0  0  0  0
   -1.6723    0.3841    0.8275 C   0  0  0  0  0  0  0  0  0  0  0  0
   -1.0911    0.1047   -1.5580 C   0  0  0  0  0  0  0  0  0  0  0  0
    3.0386    1.0266    0.6200 C   0  0  0  0  0  0  0  0  0  0  0  0
    0.0494   -1.4157    0.1779 C   0  0  0  0  0  0  0  0  0  0  0  0
   -2.0093    1.5811    0.0111 C   0  0  0  0  0  0  0  0  0  0  0  0
   -1.6979    1.4314   -1.2671 C   0  0  0  0  0  0  0  0  0  0  0  0
    1.6625    0.5115    0.3451 C   0  0  0  0  0  0  0  0  0  0  0  0
    1.3769   -0.7915    0.4281 C   0  0  0  0  0  0  0  0  0  0  0  0
   -0.0413   -2.7449    0.3114 C   0  0  0  0  0  0  0  0  0  0  0  0
   -2.0637   -1.3322   -0.3467 H   0  0  0  0  0  0  0  0  0  0  0  0
   -0.9041    0.6600    1.5851 H   0  0  0  0  0  0  0  0  0  0  0  0
   -2.5772    0.0307    1.3744 H   0  0  0  0  0  0  0  0  0  0  0  0
   -1.6665   -0.4072   -2.3641 H   0  0  0  0  0  0  0  0  0  0  0  0
   -0.0493    0.2490   -1.9238 H   0  0  0  0  0  0  0  0  0  0  0  0
    3.7690    0.5779   -0.0910 H   0  0  0  0  0  0  0  0  0  0  0  0
    3.0668    2.1328    0.4973 H   0  0  0  0  0  0  0  0  0  0  0  0
    3.3415    0.7835    1.6638 H   0  0  0  0  0  0  0  0  0  0  0  0
   -2.4383    2.4940    0.4194 H   0  0  0  0  0  0  0  0  0  0  0  0
    0.9118    1.2442    0.0764 H   0  0  0  0  0  0  0  0  0  0  0  0
   -1.8455    2.2091   -2.0138 H   0  0  0  0  0  0  0  0  0  0  0  0
    2.1961   -1.4528    0.7052 H   0  0  0  0  0  0  0  0  0  0  0  0
   -0.9712   -3.2815    0.1477 H   0  0  0  0  0  0  0  0  0  0  0  0
    0.8114   -3.3575    0.5909 H   0  0  0  0  0  0  0  0  0  0  0  0
  1  2  1  0
  1  3  1  0
  1 11  1  0
  1  5  1  0
  2 12  1  0
  2  6  1  0
  2 13  1  0
  3 15  1  0
  3 14  1  0
  3  7  1  0
  4 17  1  0
  4 16  1  0
  4  8  1  0
  4 18  1  0
  5  9  1  0
  5 10  2  3
  6  7  2  0
  6 19  1  0
  7 21  1  0
  8 20  1  0
  8  9  2  3
  9 22  1  0
 10 23  1  0
 10 24  1  0
M  END
