
     RDKit          3D

 24 24  0  0  0  0  0  0  0  0999 V2000
   -0.5718    0.1702   -0.3998 C   0  0  0  0  0  0  0  0  0  0  0  0
    0.8905    0.1065   -0.0764 C   0  0  0  0  0  0  0  0  0  0  0  0
   -1.4098    0.5768    0.8092 C   0  0  0  0  0  0  0  0  0  0  0  0
   -2.7669    0.0944    0.3097 C   0  0  0  0  0  0  0  0  0  0  0  0
   -1.1658   -1.1592   -0.7142 C   0  0  0  0  0  0  0  0  0  0  0  0
   -2.3707   -1.2800   -0.1373 C   0  0  0  0  0  0  0  0  0  0  0  0
    1.5723    1.3203   -0.6251 C   0  0  0  0  0  0  0  0  0  0  0  0
    1.5317   -1.1525   -0.5075 C   0  0  0  0  0  0  0  0  0  0  0  0
    1.8330    2.3711    0.1441 C   0  0  0  0  0  0  0  0  0  0  0  0
    2.5365   -1.6425    0.2301 C   0  0  0  0  0  0  0  0  0  0  0  0
   -0.8152    0.9397   -1.1739 H   0  0  0  0  0  0  0  0  0  0  0  0
    0.9674    0.1687    1.0422 H   0  0  0  0  0  0  0  0  0  0  0  0
   -1.3762    1.6616    0.9725 H   0  0  0  0  0  0  0  0  0  0  0  0
   -1.0746   -0.0419    1.6560 H   0  0  0  0  0  0  0  0  0  0  0  0
   -3.0018    0.7050   -0.5890 H   0  0  0  0  0  0  0  0  0  0  0  0
   -3.5389    0.1010    1.0841 H   0  0  0  0  0  0  0  0  0  0  0  0
   -0.8891   -1.8624   -1.5121 H   0  0  0  0  0  0  0  0  0  0  0  0
    1.9381    1.3653   -1.6586 H   0  0  0  0  0  0  0  0  0  0  0  0
    1.1741   -1.7778   -1.3246 H   0  0  0  0  0  0  0  0  0  0  0  0
   -2.7238   -2.1811    0.3806 H   0  0  0  0  0  0  0  0  0  0  0  0
    1.8384    3.3571   -0.3054 H   0  0  0  0  0  0  0  0  0  0  0  0
    1.8642    2.2755    1.2354 H   0  0  0  0  0  0  0  0  0  0  0  0
    2.3423   -1.6999    1.3075 H   0  0  0  0  0  0  0  0  0  0  0  0
    3.2161   -2.4161   -0.1474 H   0  0  0  0  0  0  0  0  0  0  0  0
  1  3  1  0
  1  5  1  0
  1 11  1  0
  1  2  1  0
  2 12  1  0
  2  8  1  0
  2  7  1  0
  3 14  1  0
  3 13  1  0
  3  4  1  0
  4 16  1  0
  4 15  1  0
  4  6  1  0
  5  6  2  0
  5 17  1  0
  6 20  1  0
  7  9  2  3
  7 18  1  0
  8 19  1  0
  8 10  2  3
  9 21  1  0
  9 22  1  0
 10 24  1  0
 10 23  1  0
M  END
