
     RDKit          3D

 32 32  0  0  0  0  0  0  0  0999 V2000
    0.2480    0.7378    0.1513 C   0  0  0  0  0  0  0  0  0  0  0  0
    1.0722   -0.5915    0.0314 C   0  0  0  0  0  0  0  0  0  0  0  0
   -1.0087   -0.0819   -0.1601 C   0  0  0  0  0  0  0  0  0  0  0  0
   -0.2565   -1.3564    0.0769 C   0  0  0  0  0  0  0  0  0  0  0  0
    0.6196    1.8134   -0.8772 C   0  0  0  0  0  0  0  0  0  0  0  0
    2.0278   -0.8883    1.1942 C   0  0  0  0  0  0  0  0  0  0  0  0
   -0.3081    3.0213   -0.8105 C   0  0  0  0  0  0  0  0  0  0  0  0
    3.2602    0.0088    1.1788 C   0  0  0  0  0  0  0  0  0  0  0  0
   -2.1457    0.1593    0.7995 C   0  0  0  0  0  0  0  0  0  0  0  0
   -0.4280   -2.4079   -0.9887 C   0  0  0  0  0  0  0  0  0  0  0  0
   -3.3770    0.4642    0.3842 C   0  0  0  0  0  0  0  0  0  0  0  0
   -1.5841   -3.0556   -1.1503 C   0  0  0  0  0  0  0  0  0  0  0  0
    0.2682    1.1466    1.1919 H   0  0  0  0  0  0  0  0  0  0  0  0
    1.5917   -0.6827   -0.9543 H   0  0  0  0  0  0  0  0  0  0  0  0
   -1.3191    0.0303   -1.2296 H   0  0  0  0  0  0  0  0  0  0  0  0
   -0.4479   -1.8045    1.0837 H   0  0  0  0  0  0  0  0  0  0  0  0
    1.6606    2.1551   -0.6751 H   0  0  0  0  0  0  0  0  0  0  0  0
    0.6071    1.4034   -1.9141 H   0  0  0  0  0  0  0  0  0  0  0  0
    1.5143   -0.7771    2.1778 H   0  0  0  0  0  0  0  0  0  0  0  0
    2.3609   -1.9488    1.1147 H   0  0  0  0  0  0  0  0  0  0  0  0
   -1.3565    2.7317   -1.0507 H   0  0  0  0  0  0  0  0  0  0  0  0
   -0.2837    3.4851    0.2019 H   0  0  0  0  0  0  0  0  0  0  0  0
    0.0158    3.7875   -1.5508 H   0  0  0  0  0  0  0  0  0  0  0  0
    3.8187   -0.0981    0.2209 H   0  0  0  0  0  0  0  0  0  0  0  0
    2.9765    1.0767    1.3170 H   0  0  0  0  0  0  0  0  0  0  0  0
    3.9432   -0.2745    2.0114 H   0  0  0  0  0  0  0  0  0  0  0  0
   -1.9612    0.0850    1.8710 H   0  0  0  0  0  0  0  0  0  0  0  0
    0.4082   -2.6682   -1.6365 H   0  0  0  0  0  0  0  0  0  0  0  0
   -4.1708    0.6318    1.1095 H   0  0  0  0  0  0  0  0  0  0  0  0
   -3.6173    0.5525   -0.6740 H   0  0  0  0  0  0  0  0  0  0  0  0
   -2.4470   -2.8376   -0.5226 H   0  0  0  0  0  0  0  0  0  0  0  0
   -1.6813   -3.8173   -1.9215 H   0  0  0  0  0  0  0  0  0  0  0  0
  1  2  1  0
  1  3  1  0
  1  5  1  0
  1 13  1  0
  2 14  1  0
  2  6  1  0
  2  4  1  0
  3  4  1  0
  3  9  1  0
  3 15  1  0
  4 16  1  0
  4 10  1  0
  5 17  1  0
  5  7  1  0
  5 18  1  0
  6 19  1  0
  6 20  1  0
  6  8  1  0
  7 23  1  0
  7 21  1  0
  7 22  1  0
  8 26  1  0
  8 25  1  0
  8 24  1  0
  9 11  2  3
  9 27  1  0
 10 28  1  0
 10 12  2  3
 11 29  1  0
 11 30  1  0
 12 32  1  0
 12 31  1  0
M  END
