
     RDKit          3D

 26 26  0  0  0  0  0  0  0  0999 V2000
    1.1633   -0.8798   -0.6524 C   0  0  0  0  0  0  0  0  0  0  0  0
   -0.9969   -0.9817   -0.7237 C   0  0  0  0  0  0  0  0  0  0  0  0
    0.0954   -1.9215   -0.3273 C   0  0  0  0  0  0  0  0  0  0  0  0
    0.0223    0.1044   -1.0604 C   0  0  0  0  0  0  0  0  0  0  0  0
    2.0039   -0.4298    0.5480 C   0  0  0  0  0  0  0  0  0  0  0  0
   -1.9734   -0.6240    0.4050 C   0  0  0  0  0  0  0  0  0  0  0  0
    2.9320    0.6883    0.1669 C   0  0  0  0  0  0  0  0  0  0  0  0
   -2.9836    0.3908   -0.0509 C   0  0  0  0  0  0  0  0  0  0  0  0
    2.8785    1.8952    0.7353 C   0  0  0  0  0  0  0  0  0  0  0  0
   -3.1029    1.5942    0.5151 C   0  0  0  0  0  0  0  0  0  0  0  0
    1.7877   -1.1878   -1.5253 H   0  0  0  0  0  0  0  0  0  0  0  0
   -1.5322   -1.3444   -1.6346 H   0  0  0  0  0  0  0  0  0  0  0  0
    0.0768   -2.2485    0.7399 H   0  0  0  0  0  0  0  0  0  0  0  0
    0.1592   -2.8070   -1.0028 H   0  0  0  0  0  0  0  0  0  0  0  0
    0.0454    0.3470   -2.1483 H   0  0  0  0  0  0  0  0  0  0  0  0
   -0.0413    1.0225   -0.4292 H   0  0  0  0  0  0  0  0  0  0  0  0
    1.3452   -0.1513    1.4051 H   0  0  0  0  0  0  0  0  0  0  0  0
   -1.4178   -0.2807    1.3105 H   0  0  0  0  0  0  0  0  0  0  0  0
    2.6272   -1.2865    0.8918 H   0  0  0  0  0  0  0  0  0  0  0  0
   -2.5301   -1.5411    0.7049 H   0  0  0  0  0  0  0  0  0  0  0  0
    3.6771    0.5050   -0.6063 H   0  0  0  0  0  0  0  0  0  0  0  0
   -3.6431    0.1325   -0.8786 H   0  0  0  0  0  0  0  0  0  0  0  0
    3.5715    2.6748    0.4248 H   0  0  0  0  0  0  0  0  0  0  0  0
    2.1498    2.1304    1.5093 H   0  0  0  0  0  0  0  0  0  0  0  0
   -3.8490    2.2968    0.1489 H   0  0  0  0  0  0  0  0  0  0  0  0
   -2.4651    1.9024    1.3419 H   0  0  0  0  0  0  0  0  0  0  0  0
  1  4  1  0
  1 11  1  0
  1  5  1  0
  1  3  1  0
  2 12  1  0
  2  6  1  0
  2  3  1  0
  2  4  1  0
  3 13  1  0
  3 14  1  0
  4 15  1  0
  4 16  1  0
  5 17  1  0
  5 19  1  0
  5  7  1  0
  6 20  1  0
  6 18  1  0
  6  8  1  0
  7 21  1  0
  7  9  2  3
  8 10  2  3
  8 22  1  0
  9 24  1  0
  9 23  1  0
 10 25  1  0
 10 26  1  0
M  END
