
     RDKit          3D

 13 13  0  0  0  0  0  0  0  0999 V2000
   -0.3903   -0.1718   -0.4315 C   0  0  0  0  0  0  0  0  0  0  0  0
    0.3156    1.0798   -0.2849 C   0  0  0  0  0  0  0  0  0  0  0  0
   -1.7743   -0.2770    0.1989 C   0  0  0  0  0  0  0  0  0  0  0  0
    0.7900    0.0465    0.6251 C   0  0  0  0  0  0  0  0  0  0  0  0
    1.9618   -0.5589    0.4151 C   0  0  0  0  0  0  0  0  0  0  0  0
   -0.1521   -0.7736   -1.3394 H   0  0  0  0  0  0  0  0  0  0  0  0
    0.9764    1.3397   -1.1453 H   0  0  0  0  0  0  0  0  0  0  0  0
   -0.2202    1.9054    0.2370 H   0  0  0  0  0  0  0  0  0  0  0  0
   -2.5341    0.0964   -0.5236 H   0  0  0  0  0  0  0  0  0  0  0  0
   -1.8798    0.2942    1.1505 H   0  0  0  0  0  0  0  0  0  0  0  0
   -1.9923   -1.3468    0.4146 H   0  0  0  0  0  0  0  0  0  0  0  0
    2.5505   -0.8847    1.2694 H   0  0  0  0  0  0  0  0  0  0  0  0
    2.3489   -0.7491   -0.5859 H   0  0  0  0  0  0  0  0  0  0  0  0
  1  6  1  0
  1  3  1  0
  1  4  1  0
  1  2  1  0
  2  8  1  0
  2  7  1  0
  2  4  1  0
  3 10  1  0
  3  9  1  0
  3 11  1  0
  4  5  2  3
  5 12  1  0
  5 13  1  0
M  END
