
     RDKit          3D

 32 32  0  0  0  0  0  0  0  0999 V2000
    1.5281   -0.6629   -0.6130 C   0  0  0  0  0  0  0  0  0  0  0  0
    1.0151    0.3853    0.3716 C   0  0  0  0  0  0  0  0  0  0  0  0
   -0.0150   -0.6862    0.7177 C   0  0  0  0  0  0  0  0  0  0  0  0
    0.0493   -1.0048   -0.7748 C   0  0  0  0  0  0  0  0  0  0  0  0
    2.2173   -0.1468   -1.8224 C   0  0  0  0  0  0  0  0  0  0  0  0
   -3.5786    0.4836    0.5216 C   0  0  0  0  0  0  0  0  0  0  0  0
    3.7040   -0.0996   -1.5292 C   0  0  0  0  0  0  0  0  0  0  0  0
   -4.2840    0.3888   -0.8256 C   0  0  0  0  0  0  0  0  0  0  0  0
   -1.3073   -0.1827    1.2055 C   0  0  0  0  0  0  0  0  0  0  0  0
   -2.4272   -0.4527    0.5221 C   0  0  0  0  0  0  0  0  0  0  0  0
    1.9418    0.7421    1.4515 C   0  0  0  0  0  0  0  0  0  0  0  0
    1.4671    0.9359    2.6875 C   0  0  0  0  0  0  0  0  0  0  0  0
    2.0893   -1.4247   -0.0288 H   0  0  0  0  0  0  0  0  0  0  0  0
    0.4716   -1.4568    1.3362 H   0  0  0  0  0  0  0  0  0  0  0  0
    0.5162    1.2151   -0.1690 H   0  0  0  0  0  0  0  0  0  0  0  0
   -0.4747   -0.2171   -1.3436 H   0  0  0  0  0  0  0  0  0  0  0  0
   -0.1605   -2.0518   -1.0424 H   0  0  0  0  0  0  0  0  0  0  0  0
    1.8216    0.8281   -2.1466 H   0  0  0  0  0  0  0  0  0  0  0  0
    2.0966   -0.8951   -2.6483 H   0  0  0  0  0  0  0  0  0  0  0  0
   -4.2912    0.2768    1.3427 H   0  0  0  0  0  0  0  0  0  0  0  0
   -3.1743    1.5206    0.6654 H   0  0  0  0  0  0  0  0  0  0  0  0
   -4.0955    1.3004   -1.4512 H   0  0  0  0  0  0  0  0  0  0  0  0
   -5.3688    0.3134   -0.6404 H   0  0  0  0  0  0  0  0  0  0  0  0
   -3.9447   -0.5094   -1.3829 H   0  0  0  0  0  0  0  0  0  0  0  0
    4.2190    0.0741   -2.5104 H   0  0  0  0  0  0  0  0  0  0  0  0
    3.9813    0.7592   -0.8942 H   0  0  0  0  0  0  0  0  0  0  0  0
    4.0094   -1.0800   -1.1299 H   0  0  0  0  0  0  0  0  0  0  0  0
   -2.4879   -1.4661    0.1399 H   0  0  0  0  0  0  0  0  0  0  0  0
   -1.4349   -0.1827    2.2962 H   0  0  0  0  0  0  0  0  0  0  0  0
    2.9128    1.1341    1.2070 H   0  0  0  0  0  0  0  0  0  0  0  0
    1.8048    0.2354    3.4380 H   0  0  0  0  0  0  0  0  0  0  0  0
    1.1993    1.9262    3.0499 H   0  0  0  0  0  0  0  0  0  0  0  0
  1  4  1  0
  1 13  1  0
  1  5  1  0
  1  2  1  0
  2 15  1  0
  2  3  1  0
  2 11  1  0
  3  4  1  0
  3  9  1  0
  3 14  1  0
  4 16  1  0
  4 17  1  0
  5 19  1  0
  5 18  1  0
  5  7  1  0
  6  8  1  0
  6 10  1  0
  6 20  1  0
  6 21  1  0
  7 26  1  0
  7 27  1  0
  7 25  1  0
  8 22  1  0
  8 24  1  0
  8 23  1  0
  9 10  2  3
  9 29  1  0
 10 28  1  0
 11 30  1  0
 11 12  2  3
 12 32  1  0
 12 31  1  0
M  END
