
     RDKit          3D

 26 26  0  0  0  0  0  0  0  0999 V2000
   -0.4053    1.0451    0.1569 C   0  0  0  0  0  0  0  0  0  0  0  0
    0.0558   -0.9240   -0.2649 C   0  0  0  0  0  0  0  0  0  0  0  0
    0.8838    0.3453   -0.2673 C   0  0  0  0  0  0  0  0  0  0  0  0
   -1.1008   -0.0182   -0.6840 C   0  0  0  0  0  0  0  0  0  0  0  0
   -0.5231    2.4516   -0.3200 C   0  0  0  0  0  0  0  0  0  0  0  0
    0.4425   -1.9636   -1.2704 C   0  0  0  0  0  0  0  0  0  0  0  0
    1.8672    0.4789    0.8163 C   0  0  0  0  0  0  0  0  0  0  0  0
   -2.3988   -0.4274   -0.0932 C   0  0  0  0  0  0  0  0  0  0  0  0
    2.9899   -0.2450    0.8382 C   0  0  0  0  0  0  0  0  0  0  0  0
   -2.3295   -1.0853    1.0710 C   0  0  0  0  0  0  0  0  0  0  0  0
   -0.6161    0.8606    1.2410 H   0  0  0  0  0  0  0  0  0  0  0  0
   -0.0918   -1.3182    0.7544 H   0  0  0  0  0  0  0  0  0  0  0  0
   -1.1120    0.1743   -1.7687 H   0  0  0  0  0  0  0  0  0  0  0  0
    1.1812    0.6914   -1.2717 H   0  0  0  0  0  0  0  0  0  0  0  0
   -0.7229    3.1051    0.5717 H   0  0  0  0  0  0  0  0  0  0  0  0
    0.4892    2.7768   -0.6788 H   0  0  0  0  0  0  0  0  0  0  0  0
   -1.3185    2.6097   -1.0642 H   0  0  0  0  0  0  0  0  0  0  0  0
    0.9938   -1.5758   -2.1417 H   0  0  0  0  0  0  0  0  0  0  0  0
   -0.4654   -2.5274   -1.5832 H   0  0  0  0  0  0  0  0  0  0  0  0
    1.1045   -2.6959   -0.7353 H   0  0  0  0  0  0  0  0  0  0  0  0
    1.8721    1.3570    1.4738 H   0  0  0  0  0  0  0  0  0  0  0  0
   -3.2295    0.2832   -0.1768 H   0  0  0  0  0  0  0  0  0  0  0  0
    2.9630   -1.0933    1.5317 H   0  0  0  0  0  0  0  0  0  0  0  0
    3.9270    0.3166    0.7345 H   0  0  0  0  0  0  0  0  0  0  0  0
   -1.9558   -2.1080    1.1451 H   0  0  0  0  0  0  0  0  0  0  0  0
   -2.5006   -0.5135    1.9856 H   0  0  0  0  0  0  0  0  0  0  0  0
  1  3  1  0
  1  4  1  0
  1  5  1  0
  1 11  1  0
  2 12  1  0
  2  6  1  0
  2  3  1  0
  2  4  1  0
  3 14  1  0
  3  7  1  0
  4  8  1  0
  4 13  1  0
  5 15  1  0
  5 16  1  0
  5 17  1  0
  6 20  1  0
  6 19  1  0
  6 18  1  0
  7 21  1  0
  7  9  2  3
  8 22  1  0
  8 10  2  3
  9 23  1  0
  9 24  1  0
 10 26  1  0
 10 25  1  0
M  END
