
     RDKit          3D

 23 23  0  0  0  0  0  0  0  0999 V2000
   -0.5561    0.3951   -0.0163 C   0  0  0  0  0  0  0  0  0  0  0  0
    0.8301   -0.2323   -0.1295 C   0  0  0  0  0  0  0  0  0  0  0  0
   -0.1218    1.2465   -1.2045 C   0  0  0  0  0  0  0  0  0  0  0  0
    1.2762    1.1503   -0.5971 C   0  0  0  0  0  0  0  0  0  0  0  0
   -1.6613   -0.5351   -0.4448 C   0  0  0  0  0  0  0  0  0  0  0  0
   -2.1783   -1.3980    0.6710 C   0  0  0  0  0  0  0  0  0  0  0  0
    1.4309   -0.6813    1.1395 C   0  0  0  0  0  0  0  0  0  0  0  0
    2.7700   -0.6474    1.2003 C   0  0  0  0  0  0  0  0  0  0  0  0
   -0.6653    2.5412   -1.2853 O   0  0  0  0  0  0  0  0  0  0  0  0
   -0.7330    0.9648    0.9140 H   0  0  0  0  0  0  0  0  0  0  0  0
    0.8005   -0.9949   -0.9231 H   0  0  0  0  0  0  0  0  0  0  0  0
   -0.1403    0.6144   -2.1165 H   0  0  0  0  0  0  0  0  0  0  0  0
   -1.2483   -1.1598   -1.2806 H   0  0  0  0  0  0  0  0  0  0  0  0
   -2.4983    0.0587   -0.8756 H   0  0  0  0  0  0  0  0  0  0  0  0
    1.3923    1.7946    0.2965 H   0  0  0  0  0  0  0  0  0  0  0  0
    2.0946    1.1588   -1.3334 H   0  0  0  0  0  0  0  0  0  0  0  0
   -3.2378   -1.1310    0.9223 H   0  0  0  0  0  0  0  0  0  0  0  0
   -1.5897   -1.3298    1.6063 H   0  0  0  0  0  0  0  0  0  0  0  0
   -2.1996   -2.4563    0.2982 H   0  0  0  0  0  0  0  0  0  0  0  0
    0.9481   -1.5195    1.6495 H   0  0  0  0  0  0  0  0  0  0  0  0
    3.1766    0.2450    1.6952 H   0  0  0  0  0  0  0  0  0  0  0  0
    3.3346   -0.9341    0.3028 H   0  0  0  0  0  0  0  0  0  0  0  0
   -1.2242    2.8502   -0.4887 H   0  0  0  0  0  0  0  0  0  0  0  0
  1  3  1  0
  1  2  1  0
  1 10  1  0
  1  5  1  0
  2 11  1  0
  2  7  1  0
  2  4  1  0
  3  4  1  0
  3 12  1  0
  3  9  1  0
  4 15  1  0
  4 16  1  0
  5 13  1  0
  5 14  1  0
  5  6  1  0
  6 17  1  0
  6 18  1  0
  6 19  1  0
  7 20  1  0
  7  8  2  3
  8 21  1  0
  8 22  1  0
  9 23  1  0
M  END
