
     RDKit          3D

 26 26  0  0  0  0  0  0  0  0999 V2000
    0.5300   -0.6555   -0.6430 C   0  0  0  0  0  0  0  0  0  0  0  0
   -0.4451   -0.4718    0.4826 C   0  0  0  0  0  0  0  0  0  0  0  0
   -1.5925   -0.5970   -0.4734 C   0  0  0  0  0  0  0  0  0  0  0  0
   -0.6235   -0.3847   -1.6039 C   0  0  0  0  0  0  0  0  0  0  0  0
    1.5561    0.4267   -0.8195 C   0  0  0  0  0  0  0  0  0  0  0  0
   -0.5002   -1.5647    1.5089 C   0  0  0  0  0  0  0  0  0  0  0  0
   -2.6437    0.4412   -0.3846 C   0  0  0  0  0  0  0  0  0  0  0  0
    2.8086    0.1776   -0.0478 C   0  0  0  0  0  0  0  0  0  0  0  0
   -2.7039    1.3099    0.6258 C   0  0  0  0  0  0  0  0  0  0  0  0
    3.4133    1.2513    0.4769 C   0  0  0  0  0  0  0  0  0  0  0  0
    0.9457   -1.6659   -0.7632 H   0  0  0  0  0  0  0  0  0  0  0  0
   -0.2862    0.5304    0.9394 H   0  0  0  0  0  0  0  0  0  0  0  0
   -2.0212   -1.6119   -0.5312 H   0  0  0  0  0  0  0  0  0  0  0  0
   -0.7183   -1.1095   -2.4321 H   0  0  0  0  0  0  0  0  0  0  0  0
   -0.6935    0.6710   -1.9500 H   0  0  0  0  0  0  0  0  0  0  0  0
    1.0958    1.4107   -0.5548 H   0  0  0  0  0  0  0  0  0  0  0  0
    1.8323    0.4662   -1.9063 H   0  0  0  0  0  0  0  0  0  0  0  0
    0.4816   -2.0308    1.7241 H   0  0  0  0  0  0  0  0  0  0  0  0
   -1.2033   -2.3818    1.1945 H   0  0  0  0  0  0  0  0  0  0  0  0
   -0.9775   -1.1236    2.4245 H   0  0  0  0  0  0  0  0  0  0  0  0
   -3.2398    0.6105   -1.2914 H   0  0  0  0  0  0  0  0  0  0  0  0
    3.4784   -0.5715   -0.4910 H   0  0  0  0  0  0  0  0  0  0  0  0
    4.4755    1.2367    0.7540 H   0  0  0  0  0  0  0  0  0  0  0  0
    2.9837    2.2595    0.4103 H   0  0  0  0  0  0  0  0  0  0  0  0
   -2.8537    2.3526    0.3498 H   0  0  0  0  0  0  0  0  0  0  0  0
   -3.0987    1.0243    1.6095 H   0  0  0  0  0  0  0  0  0  0  0  0
  1  2  1  0
  1 11  1  0
  1  5  1  0
  1  4  1  0
  2 12  1  0
  2  6  1  0
  2  3  1  0
  3  7  1  0
  3 13  1  0
  3  4  1  0
  4 15  1  0
  4 14  1  0
  5  8  1  0
  5 17  1  0
  5 16  1  0
  6 20  1  0
  6 19  1  0
  6 18  1  0
  7 21  1  0
  7  9  2  3
  8 10  2  3
  8 22  1  0
  9 25  1  0
  9 26  1  0
 10 23  1  0
 10 24  1  0
M  END
