
     RDKit          3D

 27 28  0  0  0  0  0  0  0  0999 V2000
   -1.6226   -0.5376   -0.5505 C   0  0  0  0  0  0  0  0  0  0  0  0
   -0.3793    0.3763   -0.7414 C   0  0  0  0  0  0  0  0  0  0  0  0
    0.8397    0.0058    0.1457 C   0  0  0  0  0  0  0  0  0  0  0  0
    2.1295    0.7359   -0.2754 C   0  0  0  0  0  0  0  0  0  0  0  0
   -2.8012    0.3808   -0.1937 C   0  0  0  0  0  0  0  0  0  0  0  0
   -1.4206   -1.6776    0.4696 C   0  0  0  0  0  0  0  0  0  0  0  0
    3.2642    0.6317    0.7418 C   0  0  0  0  0  0  0  0  0  0  0  0
   -0.9157    1.7430   -0.4687 C   0  0  0  0  0  0  0  0  0  0  0  0
    1.0100   -1.5001    0.1489 C   0  0  0  0  0  0  0  0  0  0  0  0
   -2.2066    1.7420   -0.1806 C   0  0  0  0  0  0  0  0  0  0  0  0
   -0.0595   -2.2933    0.3044 C   0  0  0  0  0  0  0  0  0  0  0  0
   -1.8438   -1.0244   -1.5316 H   0  0  0  0  0  0  0  0  0  0  0  0
   -0.0675    0.3463   -1.8132 H   0  0  0  0  0  0  0  0  0  0  0  0
    0.5980    0.3024    1.1952 H   0  0  0  0  0  0  0  0  0  0  0  0
    1.9270    1.8226   -0.4122 H   0  0  0  0  0  0  0  0  0  0  0  0
    2.4831    0.3557   -1.2623 H   0  0  0  0  0  0  0  0  0  0  0  0
   -3.2539    0.1766    0.8040 H   0  0  0  0  0  0  0  0  0  0  0  0
   -3.6060    0.3353   -0.9632 H   0  0  0  0  0  0  0  0  0  0  0  0
   -1.4739   -1.2807    1.5105 H   0  0  0  0  0  0  0  0  0  0  0  0
   -2.2154   -2.4521    0.3689 H   0  0  0  0  0  0  0  0  0  0  0  0
    4.1443    1.2137    0.3855 H   0  0  0  0  0  0  0  0  0  0  0  0
    3.5945   -0.4213    0.8851 H   0  0  0  0  0  0  0  0  0  0  0  0
    2.9523    1.0487    1.7263 H   0  0  0  0  0  0  0  0  0  0  0  0
   -2.7719    2.6478    0.0298 H   0  0  0  0  0  0  0  0  0  0  0  0
   -0.3307    2.6586   -0.5280 H   0  0  0  0  0  0  0  0  0  0  0  0
    0.0476   -3.3752    0.2449 H   0  0  0  0  0  0  0  0  0  0  0  0
    1.9784   -1.9611   -0.0398 H   0  0  0  0  0  0  0  0  0  0  0  0
  1  2  1  0
  1  6  1  0
  1  5  1  0
  1 12  1  0
  2  3  1  0
  2  8  1  0
  2 13  1  0
  3 14  1  0
  3  4  1  0
  3  9  1  0
  4  7  1  0
  4 15  1  0
  4 16  1  0
  5 18  1  0
  5 17  1  0
  5 10  1  0
  6 20  1  0
  6 11  1  0
  6 19  1  0
  7 23  1  0
  7 21  1  0
  7 22  1  0
  8 25  1  0
  8 10  2  0
  9 27  1  0
  9 11  2  0
 10 24  1  0
 11 26  1  0
M  END
