
     RDKit          3D

 27 28  0  0  0  0  0  0  0  0999 V2000
   -1.5822   -0.3603   -0.6104 C   0  0  0  0  0  0  0  0  0  0  0  0
   -0.3097    0.4160   -0.6683 C   0  0  0  0  0  0  0  0  0  0  0  0
    0.8410   -0.1914    0.0657 C   0  0  0  0  0  0  0  0  0  0  0  0
    2.1638    0.3387   -0.4704 C   0  0  0  0  0  0  0  0  0  0  0  0
   -2.6111    0.5052    0.0992 C   0  0  0  0  0  0  0  0  0  0  0  0
   -1.4925   -1.6613    0.1233 C   0  0  0  0  0  0  0  0  0  0  0  0
    2.9691    0.9446    0.6531 C   0  0  0  0  0  0  0  0  0  0  0  0
   -0.6612    1.6990    0.0209 C   0  0  0  0  0  0  0  0  0  0  0  0
    0.9044   -1.6725   -0.0461 C   0  0  0  0  0  0  0  0  0  0  0  0
   -1.9899    1.8528   -0.0367 C   0  0  0  0  0  0  0  0  0  0  0  0
   -0.2100   -2.3718   -0.1008 C   0  0  0  0  0  0  0  0  0  0  0  0
   -2.0128   -0.5921   -1.6185 H   0  0  0  0  0  0  0  0  0  0  0  0
   -0.0149    0.6434   -1.7271 H   0  0  0  0  0  0  0  0  0  0  0  0
    0.7174    0.0643    1.1478 H   0  0  0  0  0  0  0  0  0  0  0  0
    1.9668    1.0369   -1.3003 H   0  0  0  0  0  0  0  0  0  0  0  0
    2.7958   -0.4810   -0.8986 H   0  0  0  0  0  0  0  0  0  0  0  0
   -2.6056    0.2662    1.1906 H   0  0  0  0  0  0  0  0  0  0  0  0
   -3.6138    0.4456   -0.3501 H   0  0  0  0  0  0  0  0  0  0  0  0
   -1.5668   -1.4418    1.2059 H   0  0  0  0  0  0  0  0  0  0  0  0
   -2.3108   -2.3419   -0.1894 H   0  0  0  0  0  0  0  0  0  0  0  0
    3.4242    1.9113    0.3545 H   0  0  0  0  0  0  0  0  0  0  0  0
    3.7613    0.2656    1.0162 H   0  0  0  0  0  0  0  0  0  0  0  0
    2.3077    1.1388    1.5388 H   0  0  0  0  0  0  0  0  0  0  0  0
   -2.5532    2.7733   -0.0315 H   0  0  0  0  0  0  0  0  0  0  0  0
    0.0250    2.3874    0.5307 H   0  0  0  0  0  0  0  0  0  0  0  0
   -0.1746   -3.4432   -0.2186 H   0  0  0  0  0  0  0  0  0  0  0  0
    1.8326   -2.1321    0.3201 H   0  0  0  0  0  0  0  0  0  0  0  0
  1  2  1  0
  1  6  1  0
  1  5  1  0
  1 12  1  0
  2  3  1  0
  2  8  1  0
  2 13  1  0
  3 14  1  0
  3  4  1  0
  3  9  1  0
  4  7  1  0
  4 15  1  0
  4 16  1  0
  5 18  1  0
  5 17  1  0
  5 10  1  0
  6 20  1  0
  6 11  1  0
  6 19  1  0
  7 23  1  0
  7 21  1  0
  7 22  1  0
  8 25  1  0
  8 10  2  0
  9 27  1  0
  9 11  2  0
 10 24  1  0
 11 26  1  0
M  END
