
     RDKit          3D

 23 23  0  0  0  0  0  0  0  0999 V2000
   -0.0840   -0.1653   -0.0397 C   0  0  0  0  0  0  0  0  0  0  0  0
   -0.6507    1.0281    0.7984 C   0  0  0  0  0  0  0  0  0  0  0  0
    1.1901    0.1630    0.7333 C   0  0  0  0  0  0  0  0  0  0  0  0
   -0.6932   -1.5352    0.2760 C   0  0  0  0  0  0  0  0  0  0  0  0
   -1.1459    2.2085   -0.0307 C   0  0  0  0  0  0  0  0  0  0  0  0
   -2.0706   -1.7061   -0.3538 C   0  0  0  0  0  0  0  0  0  0  0  0
    2.3615    0.5446   -0.1289 C   0  0  0  0  0  0  0  0  0  0  0  0
    3.0068   -0.3573   -0.8716 C   0  0  0  0  0  0  0  0  0  0  0  0
    0.6404    1.2944    1.3848 O   0  0  0  0  0  0  0  0  0  0  0  0
   -0.0166    0.0402   -1.1357 H   0  0  0  0  0  0  0  0  0  0  0  0
   -1.3871    0.7378    1.5857 H   0  0  0  0  0  0  0  0  0  0  0  0
   -0.7749   -1.7030    1.3756 H   0  0  0  0  0  0  0  0  0  0  0  0
   -0.0170   -2.3234   -0.1283 H   0  0  0  0  0  0  0  0  0  0  0  0
    1.4884   -0.5990    1.4934 H   0  0  0  0  0  0  0  0  0  0  0  0
   -2.0168   -1.6004   -1.4614 H   0  0  0  0  0  0  0  0  0  0  0  0
   -2.4686   -2.7200   -0.1220 H   0  0  0  0  0  0  0  0  0  0  0  0
   -2.7872   -0.9535    0.0468 H   0  0  0  0  0  0  0  0  0  0  0  0
   -0.3740    2.5466   -0.7595 H   0  0  0  0  0  0  0  0  0  0  0  0
   -1.3929    3.0617    0.6403 H   0  0  0  0  0  0  0  0  0  0  0  0
   -2.0648    1.9172   -0.5876 H   0  0  0  0  0  0  0  0  0  0  0  0
    2.7013    1.5795   -0.1426 H   0  0  0  0  0  0  0  0  0  0  0  0
    2.7015   -1.4026   -0.8829 H   0  0  0  0  0  0  0  0  0  0  0  0
    3.8546   -0.0558   -1.4836 H   0  0  0  0  0  0  0  0  0  0  0  0
  1  2  1  0
  1  4  1  0
  1 10  1  0
  1  3  1  0
  2  9  1  0
  2  5  1  0
  2 11  1  0
  3  9  1  0
  3 14  1  0
  3  7  1  0
  4  6  1  0
  4 13  1  0
  4 12  1  0
  5 18  1  0
  5 20  1  0
  5 19  1  0
  6 17  1  0
  6 15  1  0
  6 16  1  0
  7  8  2  3
  7 21  1  0
  8 23  1  0
  8 22  1  0
M  END
