
     RDKit          3D

 22 22  0  0  0  0  0  0  0  0999 V2000
   -0.6507    0.1563    0.8764 C   0  0  0  0  0  0  0  0  0  0  0  0
    0.6563   -0.0605    0.0888 C   0  0  0  0  0  0  0  0  0  0  0  0
   -1.4600    1.3124    0.3634 C   0  0  0  0  0  0  0  0  0  0  0  0
   -1.6437   -0.9532    0.6821 C   0  0  0  0  0  0  0  0  0  0  0  0
    1.5831    1.1192    0.2471 C   0  0  0  0  0  0  0  0  0  0  0  0
    1.3884   -1.2827    0.5850 C   0  0  0  0  0  0  0  0  0  0  0  0
   -2.6530    0.9217   -0.0509 C   0  0  0  0  0  0  0  0  0  0  0  0
   -2.7689   -0.5077    0.1502 C   0  0  0  0  0  0  0  0  0  0  0  0
    2.0101    1.8514   -0.7854 C   0  0  0  0  0  0  0  0  0  0  0  0
    1.6712   -2.3277   -0.1976 C   0  0  0  0  0  0  0  0  0  0  0  0
   -0.4518    0.2933    1.9655 H   0  0  0  0  0  0  0  0  0  0  0  0
    0.3865   -0.1902   -0.9891 H   0  0  0  0  0  0  0  0  0  0  0  0
   -1.1233    2.3439    0.3369 H   0  0  0  0  0  0  0  0  0  0  0  0
   -1.4748   -1.9922    0.9469 H   0  0  0  0  0  0  0  0  0  0  0  0
    1.9174    1.3917    1.2483 H   0  0  0  0  0  0  0  0  0  0  0  0
    1.6976   -1.3196    1.6296 H   0  0  0  0  0  0  0  0  0  0  0  0
   -3.4179    1.5729   -0.4606 H   0  0  0  0  0  0  0  0  0  0  0  0
   -3.6360   -1.1169   -0.0822 H   0  0  0  0  0  0  0  0  0  0  0  0
    2.6764    2.6951   -0.6163 H   0  0  0  0  0  0  0  0  0  0  0  0
    1.7081    1.6298   -1.8076 H   0  0  0  0  0  0  0  0  0  0  0  0
    2.1995   -3.1870    0.2111 H   0  0  0  0  0  0  0  0  0  0  0  0
    1.3854   -2.3500   -1.2478 H   0  0  0  0  0  0  0  0  0  0  0  0
  1  4  1  0
  1 11  1  0
  1  2  1  0
  1  3  1  0
  2  6  1  0
  2 12  1  0
  2  5  1  0
  3  7  2  0
  3 13  1  0
  4 14  1  0
  4  8  2  0
  5  9  2  3
  5 15  1  0
  6 16  1  0
  6 10  2  3
  7  8  1  0
  7 17  1  0
  8 18  1  0
  9 19  1  0
  9 20  1  0
 10 22  1  0
 10 21  1  0
M  END
