
     RDKit          3D

 24 24  0  0  0  0  0  0  0  0999 V2000
    0.1915   -0.9393    0.2134 C   0  0  0  0  0  0  0  0  0  0  0  0
   -0.5519    0.2699    0.8325 C   0  0  0  0  0  0  0  0  0  0  0  0
    1.5927   -0.5737   -0.3144 C   0  0  0  0  0  0  0  0  0  0  0  0
   -0.6094   -1.6672   -0.8784 C   0  0  0  0  0  0  0  0  0  0  0  0
   -0.9757    1.3212   -0.1503 C   0  0  0  0  0  0  0  0  0  0  0  0
   -1.8801   -0.0800    1.4342 C   0  0  0  0  0  0  0  0  0  0  0  0
    2.5216   -0.0849    0.7632 C   0  0  0  0  0  0  0  0  0  0  0  0
   -2.2853    1.5010   -0.1210 C   0  0  0  0  0  0  0  0  0  0  0  0
   -2.8553    0.6180    0.8772 C   0  0  0  0  0  0  0  0  0  0  0  0
    3.0616    1.1360    0.7496 C   0  0  0  0  0  0  0  0  0  0  0  0
    0.3361   -1.6852    1.0319 H   0  0  0  0  0  0  0  0  0  0  0  0
    0.0645    0.7432    1.6313 H   0  0  0  0  0  0  0  0  0  0  0  0
    1.5044    0.1578   -1.1518 H   0  0  0  0  0  0  0  0  0  0  0  0
    2.0804   -1.4753   -0.7525 H   0  0  0  0  0  0  0  0  0  0  0  0
   -0.0696   -2.5758   -1.2309 H   0  0  0  0  0  0  0  0  0  0  0  0
   -0.7892   -1.0105   -1.7600 H   0  0  0  0  0  0  0  0  0  0  0  0
   -1.5948   -2.0179   -0.4968 H   0  0  0  0  0  0  0  0  0  0  0  0
   -0.3055    1.8780   -0.7972 H   0  0  0  0  0  0  0  0  0  0  0  0
   -2.0315   -0.8069    2.2258 H   0  0  0  0  0  0  0  0  0  0  0  0
    2.7573   -0.7547    1.5892 H   0  0  0  0  0  0  0  0  0  0  0  0
   -2.8335    2.2086   -0.7341 H   0  0  0  0  0  0  0  0  0  0  0  0
   -3.9054    0.5462    1.1404 H   0  0  0  0  0  0  0  0  0  0  0  0
    2.8513    1.8444   -0.0500 H   0  0  0  0  0  0  0  0  0  0  0  0
    3.7258    1.4469    1.5537 H   0  0  0  0  0  0  0  0  0  0  0  0
  1 11  1  0
  1  2  1  0
  1  3  1  0
  1  4  1  0
  2  5  1  0
  2  6  1  0
  2 12  1  0
  3 14  1  0
  3  7  1  0
  3 13  1  0
  4 17  1  0
  4 16  1  0
  4 15  1  0
  5 18  1  0
  5  8  2  0
  6  9  2  0
  6 19  1  0
  7 20  1  0
  7 10  2  3
  8 21  1  0
  8  9  1  0
  9 22  1  0
 10 23  1  0
 10 24  1  0
M  END
