
     RDKit          3D

 24 24  0  0  0  0  0  0  0  0999 V2000
    0.1882   -0.9403    0.1864 C   0  0  0  0  0  0  0  0  0  0  0  0
   -0.5301    0.2805    0.6755 C   0  0  0  0  0  0  0  0  0  0  0  0
    1.6572   -0.7380   -0.0415 C   0  0  0  0  0  0  0  0  0  0  0  0
   -0.4947   -1.4669   -1.0384 C   0  0  0  0  0  0  0  0  0  0  0  0
   -1.1165    1.1006   -0.4065 C   0  0  0  0  0  0  0  0  0  0  0  0
   -1.7458   -0.1945    1.4073 C   0  0  0  0  0  0  0  0  0  0  0  0
    2.2849    0.0410    1.0613 C   0  0  0  0  0  0  0  0  0  0  0  0
   -2.2454    1.6076    0.0793 C   0  0  0  0  0  0  0  0  0  0  0  0
   -2.6855    0.7043    1.1333 C   0  0  0  0  0  0  0  0  0  0  0  0
    2.7629    1.2605    0.7816 C   0  0  0  0  0  0  0  0  0  0  0  0
    0.0981   -1.7188    0.9861 H   0  0  0  0  0  0  0  0  0  0  0  0
    0.0489    0.9151    1.3633 H   0  0  0  0  0  0  0  0  0  0  0  0
    1.8371   -0.2442   -1.0332 H   0  0  0  0  0  0  0  0  0  0  0  0
    2.1072   -1.7620   -0.1425 H   0  0  0  0  0  0  0  0  0  0  0  0
    0.1493   -2.1652   -1.6109 H   0  0  0  0  0  0  0  0  0  0  0  0
   -0.8048   -0.6574   -1.7378 H   0  0  0  0  0  0  0  0  0  0  0  0
   -1.4459   -1.9609   -0.7097 H   0  0  0  0  0  0  0  0  0  0  0  0
   -0.7196    1.3759   -1.3828 H   0  0  0  0  0  0  0  0  0  0  0  0
   -2.0277   -1.2228    1.6584 H   0  0  0  0  0  0  0  0  0  0  0  0
    2.7878   -0.5246    1.8567 H   0  0  0  0  0  0  0  0  0  0  0  0
   -2.9088    2.3436   -0.3881 H   0  0  0  0  0  0  0  0  0  0  0  0
   -3.6491    0.7164    1.6141 H   0  0  0  0  0  0  0  0  0  0  0  0
    3.1026    1.4515   -0.2448 H   0  0  0  0  0  0  0  0  0  0  0  0
    3.3498    1.7989    1.5380 H   0  0  0  0  0  0  0  0  0  0  0  0
  1 11  1  0
  1  2  1  0
  1  3  1  0
  1  4  1  0
  2  5  1  0
  2  6  1  0
  2 12  1  0
  3 14  1  0
  3  7  1  0
  3 13  1  0
  4 17  1  0
  4 16  1  0
  4 15  1  0
  5 18  1  0
  5  8  2  0
  6  9  2  0
  6 19  1  0
  7 20  1  0
  7 10  2  3
  8 21  1  0
  8  9  1  0
  9 22  1  0
 10 23  1  0
 10 24  1  0
M  END
