
     RDKit          3D

 20 20  0  0  0  0  0  0  0  0999 V2000
   -0.2974   -0.2205   -0.4225 C   0  0  0  0  0  0  0  0  0  0  0  0
    0.8423   -0.3001    0.5473 C   0  0  0  0  0  0  0  0  0  0  0  0
   -1.6076    0.0462    0.3066 C   0  0  0  0  0  0  0  0  0  0  0  0
   -0.0624   -1.7162   -0.5180 C   0  0  0  0  0  0  0  0  0  0  0  0
   -2.3309    1.2461   -0.2443 C   0  0  0  0  0  0  0  0  0  0  0  0
    2.2037   -0.2940   -0.0303 C   0  0  0  0  0  0  0  0  0  0  0  0
    2.7089    0.7955   -0.6233 C   0  0  0  0  0  0  0  0  0  0  0  0
    0.4338   -1.6634    0.8148 O   0  0  0  0  0  0  0  0  0  0  0  0
   -0.1389    0.3559   -1.3440 H   0  0  0  0  0  0  0  0  0  0  0  0
   -1.4177    0.2697    1.3914 H   0  0  0  0  0  0  0  0  0  0  0  0
   -2.2886   -0.8276    0.2566 H   0  0  0  0  0  0  0  0  0  0  0  0
    0.7779    0.3150    1.4571 H   0  0  0  0  0  0  0  0  0  0  0  0
    0.6589   -2.0419   -1.2844 H   0  0  0  0  0  0  0  0  0  0  0  0
   -1.0337   -2.2208   -0.6699 H   0  0  0  0  0  0  0  0  0  0  0  0
   -2.8533    1.8202    0.5663 H   0  0  0  0  0  0  0  0  0  0  0  0
   -3.1155    0.9788   -0.9794 H   0  0  0  0  0  0  0  0  0  0  0  0
   -1.6070    1.9215   -0.7612 H   0  0  0  0  0  0  0  0  0  0  0  0
    2.9426   -0.9327    0.4719 H   0  0  0  0  0  0  0  0  0  0  0  0
    2.5011    1.7481   -0.1253 H   0  0  0  0  0  0  0  0  0  0  0  0
    3.6836    0.7201   -1.1107 H   0  0  0  0  0  0  0  0  0  0  0  0
  1  4  1  0
  1  3  1  0
  1  9  1  0
  1  2  1  0
  2  8  1  0
  2 12  1  0
  2  6  1  0
  3  5  1  0
  3 11  1  0
  3 10  1  0
  4 13  1  0
  4 14  1  0
  4  8  1  0
  5 15  1  0
  5 17  1  0
  5 16  1  0
  6  7  2  3
  6 18  1  0
  7 20  1  0
  7 19  1  0
M  END
