
     RDKit          3D

 15 15  0  0  0  0  0  0  0  0999 V2000
   -0.8911   -0.9054   -0.1005 C   0  0  0  0  0  0  0  0  0  0  0  0
    0.1369    1.1577   -0.4124 C   0  0  0  0  0  0  0  0  0  0  0  0
   -1.0769    0.5695    0.2381 C   0  0  0  0  0  0  0  0  0  0  0  0
    0.5789   -1.0919    0.2214 C   0  0  0  0  0  0  0  0  0  0  0  0
    1.2339    0.2542    0.0905 C   0  0  0  0  0  0  0  0  0  0  0  0
   -1.5327   -1.5107    0.5555 H   0  0  0  0  0  0  0  0  0  0  0  0
    0.0377    1.0158   -1.5138 H   0  0  0  0  0  0  0  0  0  0  0  0
   -1.1053   -1.0260   -1.1874 H   0  0  0  0  0  0  0  0  0  0  0  0
    0.3030    2.2239   -0.2120 H   0  0  0  0  0  0  0  0  0  0  0  0
   -1.1374    0.7172    1.3253 H   0  0  0  0  0  0  0  0  0  0  0  0
    1.0559   -1.8655   -0.4001 H   0  0  0  0  0  0  0  0  0  0  0  0
    1.7085    0.6147    1.0252 H   0  0  0  0  0  0  0  0  0  0  0  0
   -1.9954    0.9465   -0.2512 H   0  0  0  0  0  0  0  0  0  0  0  0
    0.6442   -1.3710    1.3058 H   0  0  0  0  0  0  0  0  0  0  0  0
    2.0397    0.2710   -0.6845 H   0  0  0  0  0  0  0  0  0  0  0  0
  1  8  1  0
  1  6  1  0
  1  3  1  0
  1  4  1  0
  2  7  1  0
  2  3  1  0
  2  9  1  0
  2  5  1  0
  3 10  1  0
  3 13  1  0
  4 14  1  0
  4 11  1  0
  4  5  1  0
  5 12  1  0
  5 15  1  0
M  END
