
     RDKit          3D

 22 22  0  0  0  0  0  0  0  0999 V2000
   -0.4709   -0.4573    0.4476 C   0  0  0  0  0  0  0  0  0  0  0  0
    0.7754   -0.0737   -0.2944 C   0  0  0  0  0  0  0  0  0  0  0  0
   -0.1957   -1.9033    0.0507 C   0  0  0  0  0  0  0  0  0  0  0  0
    1.2467   -1.5149   -0.1262 C   0  0  0  0  0  0  0  0  0  0  0  0
   -1.7744   -0.0210   -0.1545 C   0  0  0  0  0  0  0  0  0  0  0  0
   -2.2960    1.2612    0.4653 C   0  0  0  0  0  0  0  0  0  0  0  0
    1.7134    0.8220    0.4388 C   0  0  0  0  0  0  0  0  0  0  0  0
    2.3503    1.7486   -0.2886 C   0  0  0  0  0  0  0  0  0  0  0  0
   -0.4353   -0.2594    1.5307 H   0  0  0  0  0  0  0  0  0  0  0  0
    0.6148    0.1891   -1.3597 H   0  0  0  0  0  0  0  0  0  0  0  0
   -2.5266   -0.8135    0.1052 H   0  0  0  0  0  0  0  0  0  0  0  0
   -1.7264    0.1083   -1.2660 H   0  0  0  0  0  0  0  0  0  0  0  0
   -0.4097   -2.5849    0.9143 H   0  0  0  0  0  0  0  0  0  0  0  0
   -0.6842   -2.2090   -0.8980 H   0  0  0  0  0  0  0  0  0  0  0  0
    1.8935   -1.6563    0.7735 H   0  0  0  0  0  0  0  0  0  0  0  0
    1.6910   -1.9454   -1.0365 H   0  0  0  0  0  0  0  0  0  0  0  0
   -3.2080    1.5448   -0.1031 H   0  0  0  0  0  0  0  0  0  0  0  0
   -1.5664    2.0900    0.4188 H   0  0  0  0  0  0  0  0  0  0  0  0
   -2.6272    1.0098    1.4966 H   0  0  0  0  0  0  0  0  0  0  0  0
    2.2901    0.4451    1.2936 H   0  0  0  0  0  0  0  0  0  0  0  0
    3.2038    1.4469   -0.8789 H   0  0  0  0  0  0  0  0  0  0  0  0
    2.1420    2.7732   -0.0305 H   0  0  0  0  0  0  0  0  0  0  0  0
  1  3  1  0
  1  9  1  0
  1  5  1  0
  1  2  1  0
  2  4  1  0
  2 10  1  0
  2  7  1  0
  3 13  1  0
  3 14  1  0
  3  4  1  0
  4 15  1  0
  4 16  1  0
  5  6  1  0
  5 11  1  0
  5 12  1  0
  6 19  1  0
  6 17  1  0
  6 18  1  0
  7  8  2  3
  7 20  1  0
  8 22  1  0
  8 21  1  0
M  END
