
     RDKit          3D

 22 22  0  0  0  0  0  0  0  0999 V2000
   -1.3278   -0.2923    0.5752 C   0  0  0  0  0  0  0  0  0  0  0  0
   -0.0023   -0.1205   -0.1105 C   0  0  0  0  0  0  0  0  0  0  0  0
   -2.1631    0.9479    0.5057 C   0  0  0  0  0  0  0  0  0  0  0  0
   -2.2174   -1.2655   -0.0892 C   0  0  0  0  0  0  0  0  0  0  0  0
    0.8541    0.7022    0.8001 C   0  0  0  0  0  0  0  0  0  0  0  0
   -3.4092    0.5010    0.6702 C   0  0  0  0  0  0  0  0  0  0  0  0
   -3.4592   -0.9017    0.2357 C   0  0  0  0  0  0  0  0  0  0  0  0
    2.0853    0.9896    0.3831 C   0  0  0  0  0  0  0  0  0  0  0  0
    3.0587   -0.0775    0.1194 C   0  0  0  0  0  0  0  0  0  0  0  0
    4.3667    0.1038    0.2676 C   0  0  0  0  0  0  0  0  0  0  0  0
   -1.1571   -0.5022    1.6464 H   0  0  0  0  0  0  0  0  0  0  0  0
    0.4698   -1.1142   -0.1835 H   0  0  0  0  0  0  0  0  0  0  0  0
   -0.0898    0.3346   -1.1199 H   0  0  0  0  0  0  0  0  0  0  0  0
   -1.8504    1.9604    0.3109 H   0  0  0  0  0  0  0  0  0  0  0  0
   -1.9484   -1.9872   -0.8412 H   0  0  0  0  0  0  0  0  0  0  0  0
    0.7730    0.4581    1.8640 H   0  0  0  0  0  0  0  0  0  0  0  0
   -4.2511    1.0909    1.0470 H   0  0  0  0  0  0  0  0  0  0  0  0
   -4.3171   -1.5806    0.2827 H   0  0  0  0  0  0  0  0  0  0  0  0
    2.2320    1.9844   -0.0467 H   0  0  0  0  0  0  0  0  0  0  0  0
    2.6461   -1.0037   -0.2921 H   0  0  0  0  0  0  0  0  0  0  0  0
    5.0130   -0.5562   -0.3181 H   0  0  0  0  0  0  0  0  0  0  0  0
    4.6940    0.3287    1.2843 H   0  0  0  0  0  0  0  0  0  0  0  0
  1  4  1  0
  1  2  1  0
  1 11  1  0
  1  3  1  0
  2  5  1  0
  2 12  1  0
  2 13  1  0
  3  6  2  0
  3 14  1  0
  4 15  1  0
  4  7  2  0
  5 16  1  0
  5  8  2  3
  6  7  1  0
  6 17  1  0
  7 18  1  0
  8 19  1  0
  8  9  1  0
  9 10  2  3
  9 20  1  0
 10 22  1  0
 10 21  1  0
M  END
