
     RDKit          3D

 16 16  0  0  0  0  0  0  0  0999 V2000
    1.0808    0.9568   -0.2542 C   0  0  0  0  0  0  0  0  0  0  0  0
   -1.1457   -0.6312   -0.6036 C   0  0  0  0  0  0  0  0  0  0  0  0
    2.0831    0.1953    0.5550 C   0  0  0  0  0  0  0  0  0  0  0  0
   -2.1780    0.2383    0.0655 C   0  0  0  0  0  0  0  0  0  0  0  0
    0.2470   -0.2845   -0.1650 C   0  0  0  0  0  0  0  0  0  0  0  0
    1.1952   -0.9818    0.4770 C   0  0  0  0  0  0  0  0  0  0  0  0
   -1.3611   -1.6862   -0.2847 H   0  0  0  0  0  0  0  0  0  0  0  0
   -1.2360   -0.6412   -1.7119 H   0  0  0  0  0  0  0  0  0  0  0  0
    2.2124    0.5855    1.5765 H   0  0  0  0  0  0  0  0  0  0  0  0
    3.0556   -0.0240    0.0714 H   0  0  0  0  0  0  0  0  0  0  0  0
    1.4325    1.1802   -1.2803 H   0  0  0  0  0  0  0  0  0  0  0  0
    0.6099    1.8359    0.2055 H   0  0  0  0  0  0  0  0  0  0  0  0
   -2.6994   -0.3196    0.8842 H   0  0  0  0  0  0  0  0  0  0  0  0
   -2.9673    0.5207   -0.6507 H   0  0  0  0  0  0  0  0  0  0  0  0
   -1.6908    1.1192    0.5439 H   0  0  0  0  0  0  0  0  0  0  0  0
    1.3615   -2.0633    0.5716 H   0  0  0  0  0  0  0  0  0  0  0  0
  1  5  1  0
  1  3  1  0
  1 11  1  0
  1 12  1  0
  2  4  1  0
  2  5  1  0
  2  7  1  0
  2  8  1  0
  3  9  1  0
  3  6  1  0
  3 10  1  0
  4 13  1  0
  4 15  1  0
  4 14  1  0
  5  6  2  0
  6 16  1  0
M  END
