
     RDKit          3D

 16 16  0  0  0  0  0  0  0  0999 V2000
    1.1409    0.9606   -0.0182 C   0  0  0  0  0  0  0  0  0  0  0  0
   -1.1387   -0.5246   -0.7561 C   0  0  0  0  0  0  0  0  0  0  0  0
    2.1417   -0.0050    0.6300 C   0  0  0  0  0  0  0  0  0  0  0  0
   -2.2079    0.2744   -0.0239 C   0  0  0  0  0  0  0  0  0  0  0  0
    0.2197   -0.2587   -0.1896 C   0  0  0  0  0  0  0  0  0  0  0  0
    1.1402   -1.0149    0.3782 C   0  0  0  0  0  0  0  0  0  0  0  0
   -1.3732   -1.6114   -0.6811 H   0  0  0  0  0  0  0  0  0  0  0  0
   -1.1353   -0.2448   -1.8339 H   0  0  0  0  0  0  0  0  0  0  0  0
    2.3020    0.1640    1.7198 H   0  0  0  0  0  0  0  0  0  0  0  0
    3.0676   -0.1744    0.0333 H   0  0  0  0  0  0  0  0  0  0  0  0
    1.4733    1.3767   -0.9980 H   0  0  0  0  0  0  0  0  0  0  0  0
    0.7130    1.7155    0.6822 H   0  0  0  0  0  0  0  0  0  0  0  0
   -2.2373    0.0005    1.0557 H   0  0  0  0  0  0  0  0  0  0  0  0
   -3.2073    0.0569   -0.4643 H   0  0  0  0  0  0  0  0  0  0  0  0
   -2.0205    1.3688   -0.1167 H   0  0  0  0  0  0  0  0  0  0  0  0
    1.1217   -2.0835    0.5828 H   0  0  0  0  0  0  0  0  0  0  0  0
  1  5  1  0
  1  3  1  0
  1 11  1  0
  1 12  1  0
  2  4  1  0
  2  5  1  0
  2  7  1  0
  2  8  1  0
  3  9  1  0
  3  6  1  0
  3 10  1  0
  4 13  1  0
  4 15  1  0
  4 14  1  0
  5  6  2  0
  6 16  1  0
M  END
