
     RDKit          3D

 29 29  0  0  0  0  0  0  0  0999 V2000
   -0.3161    0.5099    0.4545 C   0  0  0  0  0  0  0  0  0  0  0  0
    0.5330   -1.2580   -0.4255 C   0  0  0  0  0  0  0  0  0  0  0  0
    0.6741    0.2129   -0.6787 C   0  0  0  0  0  0  0  0  0  0  0  0
   -0.7091   -1.0075    0.4366 C   0  0  0  0  0  0  0  0  0  0  0  0
   -1.4633    1.4679    0.1105 C   0  0  0  0  0  0  0  0  0  0  0  0
    0.2863   -2.1160   -1.6669 C   0  0  0  0  0  0  0  0  0  0  0  0
   -0.9956    2.9151    0.0057 C   0  0  0  0  0  0  0  0  0  0  0  0
    2.0574    0.7739   -0.4730 C   0  0  0  0  0  0  0  0  0  0  0  0
   -0.7071   -1.6769    1.7850 C   0  0  0  0  0  0  0  0  0  0  0  0
    3.0541    0.5066   -1.3197 C   0  0  0  0  0  0  0  0  0  0  0  0
   -1.6418   -1.4064    2.6984 C   0  0  0  0  0  0  0  0  0  0  0  0
    0.1768    0.7933    1.4176 H   0  0  0  0  0  0  0  0  0  0  0  0
    1.3900   -1.6737    0.1605 H   0  0  0  0  0  0  0  0  0  0  0  0
    0.2764    0.5287   -1.6747 H   0  0  0  0  0  0  0  0  0  0  0  0
   -1.6646   -1.2054   -0.1083 H   0  0  0  0  0  0  0  0  0  0  0  0
   -1.9604    1.1765   -0.8441 H   0  0  0  0  0  0  0  0  0  0  0  0
   -2.2335    1.4032    0.9130 H   0  0  0  0  0  0  0  0  0  0  0  0
   -0.5352    3.2537    0.9618 H   0  0  0  0  0  0  0  0  0  0  0  0
   -0.2531    3.0349   -0.8157 H   0  0  0  0  0  0  0  0  0  0  0  0
   -1.8633    3.5772   -0.2149 H   0  0  0  0  0  0  0  0  0  0  0  0
    0.0498   -3.1598   -1.3599 H   0  0  0  0  0  0  0  0  0  0  0  0
   -0.5583   -1.7328   -2.2846 H   0  0  0  0  0  0  0  0  0  0  0  0
    1.2017   -2.1394   -2.3001 H   0  0  0  0  0  0  0  0  0  0  0  0
    2.2566    1.4336    0.3707 H   0  0  0  0  0  0  0  0  0  0  0  0
    0.0577   -2.4142    2.0258 H   0  0  0  0  0  0  0  0  0  0  0  0
    4.0414    0.9334   -1.1539 H   0  0  0  0  0  0  0  0  0  0  0  0
    2.9048   -0.1357   -2.1861 H   0  0  0  0  0  0  0  0  0  0  0  0
   -2.4338   -0.6855    2.5026 H   0  0  0  0  0  0  0  0  0  0  0  0
   -1.6248   -1.9095    3.6633 H   0  0  0  0  0  0  0  0  0  0  0  0
  1  4  1  0
  1 12  1  0
  1  5  1  0
  1  3  1  0
  2 13  1  0
  2  6  1  0
  2  3  1  0
  2  4  1  0
  3  8  1  0
  3 14  1  0
  4  9  1  0
  4 15  1  0
  5 17  1  0
  5 16  1  0
  5  7  1  0
  6 23  1  0
  6 22  1  0
  6 21  1  0
  7 19  1  0
  7 18  1  0
  7 20  1  0
  8 10  2  3
  8 24  1  0
  9 25  1  0
  9 11  2  3
 10 26  1  0
 10 27  1  0
 11 28  1  0
 11 29  1  0
M  END
