
     RDKit          3D

 29 29  0  0  0  0  0  0  0  0999 V2000
   -0.3342    0.4716    0.5520 C   0  0  0  0  0  0  0  0  0  0  0  0
    0.4800   -0.9395   -0.7814 C   0  0  0  0  0  0  0  0  0  0  0  0
    0.7282    0.5230   -0.5128 C   0  0  0  0  0  0  0  0  0  0  0  0
   -0.7426   -0.8941    0.1109 C   0  0  0  0  0  0  0  0  0  0  0  0
   -1.4694    1.4596    0.3807 C   0  0  0  0  0  0  0  0  0  0  0  0
    0.0940   -1.2950   -2.1895 C   0  0  0  0  0  0  0  0  0  0  0  0
   -0.9566    2.8826    0.3634 C   0  0  0  0  0  0  0  0  0  0  0  0
    2.1245    0.7040   -0.0041 C   0  0  0  0  0  0  0  0  0  0  0  0
   -0.6360   -1.9825    1.1348 C   0  0  0  0  0  0  0  0  0  0  0  0
    3.0759   -0.1435   -0.4112 C   0  0  0  0  0  0  0  0  0  0  0  0
   -1.3844   -1.8877    2.2405 C   0  0  0  0  0  0  0  0  0  0  0  0
    0.1282    0.5663    1.5544 H   0  0  0  0  0  0  0  0  0  0  0  0
    1.2892   -1.6294   -0.4198 H   0  0  0  0  0  0  0  0  0  0  0  0
    0.5578    1.2080   -1.3539 H   0  0  0  0  0  0  0  0  0  0  0  0
   -1.7170   -0.9866   -0.4081 H   0  0  0  0  0  0  0  0  0  0  0  0
   -2.0973    1.2529   -0.5031 H   0  0  0  0  0  0  0  0  0  0  0  0
   -2.0931    1.3723    1.3086 H   0  0  0  0  0  0  0  0  0  0  0  0
   -0.2953    3.0235    1.2590 H   0  0  0  0  0  0  0  0  0  0  0  0
   -0.3581    2.9955   -0.5547 H   0  0  0  0  0  0  0  0  0  0  0  0
   -1.8333    3.5643    0.3682 H   0  0  0  0  0  0  0  0  0  0  0  0
    0.4171   -2.3402   -2.4457 H   0  0  0  0  0  0  0  0  0  0  0  0
   -1.0091   -1.2825   -2.3597 H   0  0  0  0  0  0  0  0  0  0  0  0
    0.5979   -0.6524   -2.9583 H   0  0  0  0  0  0  0  0  0  0  0  0
    2.4412    1.6303    0.4420 H   0  0  0  0  0  0  0  0  0  0  0  0
   -0.5998   -2.9923    0.7021 H   0  0  0  0  0  0  0  0  0  0  0  0
    3.8844    0.3184   -0.9927 H   0  0  0  0  0  0  0  0  0  0  0  0
    3.3993   -0.9127    0.3012 H   0  0  0  0  0  0  0  0  0  0  0  0
   -2.3297   -1.3359    2.1987 H   0  0  0  0  0  0  0  0  0  0  0  0
   -1.3618   -2.6980    2.9782 H   0  0  0  0  0  0  0  0  0  0  0  0
  1  4  1  0
  1 12  1  0
  1  5  1  0
  1  3  1  0
  2 13  1  0
  2  6  1  0
  2  3  1  0
  2  4  1  0
  3  8  1  0
  3 14  1  0
  4  9  1  0
  4 15  1  0
  5 17  1  0
  5 16  1  0
  5  7  1  0
  6 23  1  0
  6 22  1  0
  6 21  1  0
  7 19  1  0
  7 18  1  0
  7 20  1  0
  8 10  2  3
  8 24  1  0
  9 25  1  0
  9 11  2  3
 10 26  1  0
 10 27  1  0
 11 28  1  0
 11 29  1  0
M  END
