
     RDKit          3D

 24 24  0  0  0  0  0  0  0  0999 V2000
   -1.6002   -0.7271    0.0229 C   0  0  0  0  0  0  0  0  0  0  0  0
    1.9411   -0.0536   -0.5055 C   0  0  0  0  0  0  0  0  0  0  0  0
    0.8801   -0.0400    0.5992 C   0  0  0  0  0  0  0  0  0  0  0  0
    2.9881    1.0385   -0.3169 C   0  0  0  0  0  0  0  0  0  0  0  0
   -0.1803   -1.1015    0.3951 C   0  0  0  0  0  0  0  0  0  0  0  0
   -1.6679    0.1431   -1.1940 C   0  0  0  0  0  0  0  0  0  0  0  0
   -2.2414    0.1724    1.0339 C   0  0  0  0  0  0  0  0  0  0  0  0
   -2.2320    1.3066   -0.9155 C   0  0  0  0  0  0  0  0  0  0  0  0
   -2.5942    1.3248    0.4886 C   0  0  0  0  0  0  0  0  0  0  0  0
    0.1391   -2.3932    0.5721 C   0  0  0  0  0  0  0  0  0  0  0  0
   -2.2596   -1.6131   -0.1341 H   0  0  0  0  0  0  0  0  0  0  0  0
    2.4638   -1.0377   -0.5277 H   0  0  0  0  0  0  0  0  0  0  0  0
    1.4521    0.0915   -1.4970 H   0  0  0  0  0  0  0  0  0  0  0  0
    1.3546   -0.1792    1.5988 H   0  0  0  0  0  0  0  0  0  0  0  0
    0.4175    0.9735    0.6253 H   0  0  0  0  0  0  0  0  0  0  0  0
    3.5256    0.9091    0.6502 H   0  0  0  0  0  0  0  0  0  0  0  0
    2.5177    2.0480   -0.3391 H   0  0  0  0  0  0  0  0  0  0  0  0
    3.7379    0.9895   -1.1389 H   0  0  0  0  0  0  0  0  0  0  0  0
   -1.3103   -0.1372   -2.1797 H   0  0  0  0  0  0  0  0  0  0  0  0
   -2.4071   -0.0814    2.0761 H   0  0  0  0  0  0  0  0  0  0  0  0
   -2.3979    2.1079   -1.6278 H   0  0  0  0  0  0  0  0  0  0  0  0
   -3.0792    2.1421    1.0118 H   0  0  0  0  0  0  0  0  0  0  0  0
    1.1463   -2.6941    0.8568 H   0  0  0  0  0  0  0  0  0  0  0  0
   -0.5936   -3.1887    0.4456 H   0  0  0  0  0  0  0  0  0  0  0  0
  1 11  1  0
  1  6  1  0
  1  7  1  0
  1  5  1  0
  2 13  1  0
  2  4  1  0
  2  3  1  0
  2 12  1  0
  3 14  1  0
  3 15  1  0
  3  5  1  0
  4 18  1  0
  4 16  1  0
  4 17  1  0
  5 10  2  3
  6  8  2  0
  6 19  1  0
  7 20  1  0
  7  9  2  0
  8  9  1  0
  8 21  1  0
  9 22  1  0
 10 23  1  0
 10 24  1  0
M  END
