
     RDKit          3D

 32 32  0  0  0  0  0  0  0  0999 V2000
    0.7983    1.6622    0.4992 C   0  0  0  0  0  0  0  0  0  0  0  0
   -0.4399    1.4520   -0.3743 C   0  0  0  0  0  0  0  0  0  0  0  0
    0.7497    3.1733    0.1092 C   0  0  0  0  0  0  0  0  0  0  0  0
   -0.6140    2.9266   -0.5213 C   0  0  0  0  0  0  0  0  0  0  0  0
    3.3341   -1.1618   -0.2747 C   0  0  0  0  0  0  0  0  0  0  0  0
   -3.2599   -1.0401    0.5815 C   0  0  0  0  0  0  0  0  0  0  0  0
    3.2164   -2.6638   -0.0444 C   0  0  0  0  0  0  0  0  0  0  0  0
   -3.7664   -2.2784   -0.1486 C   0  0  0  0  0  0  0  0  0  0  0  0
    2.0245    0.9162    0.0468 C   0  0  0  0  0  0  0  0  0  0  0  0
   -1.5688    0.7517    0.3371 C   0  0  0  0  0  0  0  0  0  0  0  0
    2.1110   -0.4138    0.1747 C   0  0  0  0  0  0  0  0  0  0  0  0
   -2.1447   -0.3526   -0.1548 C   0  0  0  0  0  0  0  0  0  0  0  0
    0.6218    1.5350    1.5951 H   0  0  0  0  0  0  0  0  0  0  0  0
   -0.1917    0.9947   -1.3647 H   0  0  0  0  0  0  0  0  0  0  0  0
    1.5067    3.4830   -0.6499 H   0  0  0  0  0  0  0  0  0  0  0  0
    0.7137    3.8539    0.9913 H   0  0  0  0  0  0  0  0  0  0  0  0
   -1.4325    3.3690    0.0960 H   0  0  0  0  0  0  0  0  0  0  0  0
   -0.6708    3.2648   -1.5824 H   0  0  0  0  0  0  0  0  0  0  0  0
    3.4997   -0.9792   -1.3618 H   0  0  0  0  0  0  0  0  0  0  0  0
    4.2236   -0.7830    0.2802 H   0  0  0  0  0  0  0  0  0  0  0  0
   -4.1090   -0.3299    0.7124 H   0  0  0  0  0  0  0  0  0  0  0  0
   -2.9025   -1.3435    1.5929 H   0  0  0  0  0  0  0  0  0  0  0  0
    2.3553   -3.0849   -0.6122 H   0  0  0  0  0  0  0  0  0  0  0  0
    4.1433   -3.1732   -0.3928 H   0  0  0  0  0  0  0  0  0  0  0  0
    3.0837   -2.8890    1.0386 H   0  0  0  0  0  0  0  0  0  0  0  0
   -4.5888   -2.7511    0.4348 H   0  0  0  0  0  0  0  0  0  0  0  0
   -2.9512   -3.0284   -0.2682 H   0  0  0  0  0  0  0  0  0  0  0  0
   -4.1649   -2.0099   -1.1538 H   0  0  0  0  0  0  0  0  0  0  0  0
    1.2743   -0.9631    0.6088 H   0  0  0  0  0  0  0  0  0  0  0  0
    2.8585    1.4716   -0.3822 H   0  0  0  0  0  0  0  0  0  0  0  0
   -1.7973   -0.7645   -1.1028 H   0  0  0  0  0  0  0  0  0  0  0  0
   -1.9120    1.1561    1.2902 H   0  0  0  0  0  0  0  0  0  0  0  0
  1  3  1  0
  1  2  1  0
  1  9  1  0
  1 13  1  0
  2 14  1  0
  2 10  1  0
  2  4  1  0
  3 15  1  0
  3  4  1  0
  3 16  1  0
  4 18  1  0
  4 17  1  0
  5  7  1  0
  5 19  1  0
  5 11  1  0
  5 20  1  0
  6 21  1  0
  6 22  1  0
  6 12  1  0
  6  8  1  0
  7 23  1  0
  7 25  1  0
  7 24  1  0
  8 27  1  0
  8 28  1  0
  8 26  1  0
  9 11  2  3
  9 30  1  0
 10 32  1  0
 10 12  2  3
 11 29  1  0
 12 31  1  0
M  END
