
     RDKit          3D

 21 21  0  0  0  0  0  0  0  0999 V2000
   -0.5401    0.2739   -0.6756 C   0  0  0  0  0  0  0  0  0  0  0  0
    0.6895    0.4393    0.2201 C   0  0  0  0  0  0  0  0  0  0  0  0
   -1.8681    0.0439    0.0549 C   0  0  0  0  0  0  0  0  0  0  0  0
    0.8446    1.8454   -0.2479 C   0  0  0  0  0  0  0  0  0  0  0  0
   -1.9872   -1.3758    0.5983 C   0  0  0  0  0  0  0  0  0  0  0  0
   -0.3679    1.7322   -1.1182 C   0  0  0  0  0  0  0  0  0  0  0  0
    1.8313   -0.4682   -0.1607 C   0  0  0  0  0  0  0  0  0  0  0  0
    2.4390   -1.2592    0.7262 C   0  0  0  0  0  0  0  0  0  0  0  0
   -0.4166   -0.4270   -1.5373 H   0  0  0  0  0  0  0  0  0  0  0  0
    0.4514    0.4090    1.3118 H   0  0  0  0  0  0  0  0  0  0  0  0
   -2.0003    0.7677    0.8934 H   0  0  0  0  0  0  0  0  0  0  0  0
   -2.7052    0.2166   -0.6606 H   0  0  0  0  0  0  0  0  0  0  0  0
    0.6755    2.5962    0.5585 H   0  0  0  0  0  0  0  0  0  0  0  0
    1.7727    2.0705   -0.8263 H   0  0  0  0  0  0  0  0  0  0  0  0
   -1.1912   -1.5853    1.3486 H   0  0  0  0  0  0  0  0  0  0  0  0
   -1.9127   -2.1230   -0.2245 H   0  0  0  0  0  0  0  0  0  0  0  0
   -2.9739   -1.5075    1.0973 H   0  0  0  0  0  0  0  0  0  0  0  0
   -0.3065    2.0264   -2.3443 O   0  0  0  0  0  0  0  0  0  0  0  0
    2.1714   -0.4885   -1.1961 H   0  0  0  0  0  0  0  0  0  0  0  0
    3.2576   -1.9034    0.4108 H   0  0  0  0  0  0  0  0  0  0  0  0
    2.1365   -1.2831    1.7718 H   0  0  0  0  0  0  0  0  0  0  0  0
  1  6  1  0
  1  9  1  0
  1  3  1  0
  1  2  1  0
  2  4  1  0
  2 10  1  0
  2  7  1  0
  3 12  1  0
  3  5  1  0
  3 11  1  0
  4 13  1  0
  4  6  1  0
  4 14  1  0
  5 17  1  0
  5 15  1  0
  5 16  1  0
  6 18  2  0
  7  8  2  3
  7 19  1  0
  8 21  1  0
  8 20  1  0
M  END
