
     RDKit          3D

 26 26  0  0  0  0  0  0  0  0999 V2000
    0.6562   -0.8032    0.4329 C   0  0  0  0  0  0  0  0  0  0  0  0
   -0.2244   -0.3406   -0.6929 C   0  0  0  0  0  0  0  0  0  0  0  0
    0.5141   -2.2159   -0.1034 C   0  0  0  0  0  0  0  0  0  0  0  0
   -0.1129   -1.6868   -1.3736 C   0  0  0  0  0  0  0  0  0  0  0  0
    2.0988   -0.3883    0.3643 C   0  0  0  0  0  0  0  0  0  0  0  0
   -3.1337    1.5763    0.5313 C   0  0  0  0  0  0  0  0  0  0  0  0
   -1.6507   -0.0902   -0.3241 C   0  0  0  0  0  0  0  0  0  0  0  0
    2.3172    1.0483    0.6197 C   0  0  0  0  0  0  0  0  0  0  0  0
   -1.9210    0.7135    0.7141 C   0  0  0  0  0  0  0  0  0  0  0  0
    2.3128    1.9858   -0.3325 C   0  0  0  0  0  0  0  0  0  0  0  0
    0.1948   -0.6619    1.4305 H   0  0  0  0  0  0  0  0  0  0  0  0
    0.1963    0.5198   -1.2755 H   0  0  0  0  0  0  0  0  0  0  0  0
    1.4575   -2.7382   -0.3316 H   0  0  0  0  0  0  0  0  0  0  0  0
   -0.1699   -2.8352    0.5281 H   0  0  0  0  0  0  0  0  0  0  0  0
   -1.0902   -2.2109   -1.5394 H   0  0  0  0  0  0  0  0  0  0  0  0
    0.5402   -1.6463   -2.2584 H   0  0  0  0  0  0  0  0  0  0  0  0
    2.4919   -0.6271   -0.6478 H   0  0  0  0  0  0  0  0  0  0  0  0
    2.6385   -0.9954    1.1400 H   0  0  0  0  0  0  0  0  0  0  0  0
   -3.2623    1.8370   -0.5493 H   0  0  0  0  0  0  0  0  0  0  0  0
   -4.0433    1.0977    0.9531 H   0  0  0  0  0  0  0  0  0  0  0  0
   -2.8869    2.5350    1.0590 H   0  0  0  0  0  0  0  0  0  0  0  0
   -2.4513   -0.8115   -0.5364 H   0  0  0  0  0  0  0  0  0  0  0  0
    2.5397    1.3933    1.6220 H   0  0  0  0  0  0  0  0  0  0  0  0
   -1.7063    0.3049    1.6866 H   0  0  0  0  0  0  0  0  0  0  0  0
    1.4671    2.6725   -0.3305 H   0  0  0  0  0  0  0  0  0  0  0  0
    3.2278    2.3675   -0.7863 H   0  0  0  0  0  0  0  0  0  0  0  0
  1  3  1  0
  1  5  1  0
  1 11  1  0
  1  2  1  0
  2 12  1  0
  2  7  1  0
  2  4  1  0
  3 14  1  0
  3 13  1  0
  3  4  1  0
  4 15  1  0
  4 16  1  0
  5 17  1  0
  5 18  1  0
  5  8  1  0
  6 21  1  0
  6 20  1  0
  6  9  1  0
  6 19  1  0
  7  9  2  3
  7 22  1  0
  8 10  2  3
  8 23  1  0
  9 24  1  0
 10 25  1  0
 10 26  1  0
M  END
