
     RDKit          3D

 27 28  0  0  0  0  0  0  0  0999 V2000
   -0.4899   -0.5946    0.5420 C   0  0  0  0  0  0  0  0  0  0  0  0
    0.8009    0.0486    0.1233 C   0  0  0  0  0  0  0  0  0  0  0  0
   -1.5801    0.4638    0.4095 C   0  0  0  0  0  0  0  0  0  0  0  0
    2.0189   -0.5875    0.7267 C   0  0  0  0  0  0  0  0  0  0  0  0
   -0.9815   -1.6397   -0.4222 C   0  0  0  0  0  0  0  0  0  0  0  0
   -1.2682    1.4171   -0.7404 C   0  0  0  0  0  0  0  0  0  0  0  0
    3.1703   -0.3555   -0.2432 C   0  0  0  0  0  0  0  0  0  0  0  0
   -2.8011   -0.3233    0.1618 C   0  0  0  0  0  0  0  0  0  0  0  0
    0.7634    1.4988    0.5064 C   0  0  0  0  0  0  0  0  0  0  0  0
   -2.4320   -1.3275   -0.6207 C   0  0  0  0  0  0  0  0  0  0  0  0
   -0.1024    2.2152   -0.2247 C   0  0  0  0  0  0  0  0  0  0  0  0
   -0.4538   -1.0167    1.5632 H   0  0  0  0  0  0  0  0  0  0  0  0
   -1.6085    1.0915    1.3139 H   0  0  0  0  0  0  0  0  0  0  0  0
    0.8783   -0.0560   -0.9916 H   0  0  0  0  0  0  0  0  0  0  0  0
    1.8685   -1.6551    0.9425 H   0  0  0  0  0  0  0  0  0  0  0  0
    2.2956   -0.0279    1.6531 H   0  0  0  0  0  0  0  0  0  0  0  0
   -0.4183   -1.5535   -1.3750 H   0  0  0  0  0  0  0  0  0  0  0  0
   -0.9182   -2.6727   -0.0168 H   0  0  0  0  0  0  0  0  0  0  0  0
   -2.1595    2.0451   -0.9067 H   0  0  0  0  0  0  0  0  0  0  0  0
   -1.0004    0.8239   -1.6372 H   0  0  0  0  0  0  0  0  0  0  0  0
    3.1804   -1.2172   -0.9586 H   0  0  0  0  0  0  0  0  0  0  0  0
    2.9669    0.5509   -0.8700 H   0  0  0  0  0  0  0  0  0  0  0  0
    4.1424   -0.2947    0.2729 H   0  0  0  0  0  0  0  0  0  0  0  0
   -3.1227   -1.8953   -1.2258 H   0  0  0  0  0  0  0  0  0  0  0  0
   -3.7614   -0.0962    0.6236 H   0  0  0  0  0  0  0  0  0  0  0  0
   -0.1785    3.2913   -0.0523 H   0  0  0  0  0  0  0  0  0  0  0  0
    1.1910    1.8670    1.4465 H   0  0  0  0  0  0  0  0  0  0  0  0
  1  2  1  0
  1  5  1  0
  1  3  1  0
  1 12  1  0
  2 14  1  0
  2  4  1  0
  2  9  1  0
  3  8  1  0
  3  6  1  0
  3 13  1  0
  4  7  1  0
  4 15  1  0
  4 16  1  0
  5 18  1  0
  5 17  1  0
  5 10  1  0
  6 20  1  0
  6 11  1  0
  6 19  1  0
  7 21  1  0
  7 23  1  0
  7 22  1  0
  8 25  1  0
  8 10  2  0
  9 27  1  0
  9 11  2  0
 10 24  1  0
 11 26  1  0
M  END
