
     RDKit          3D

 29 29  0  0  0  0  0  0  0  0999 V2000
    0.8066   -0.8194    0.1363 C   0  0  0  0  0  0  0  0  0  0  0  0
   -1.4111    0.1224    0.3410 C   0  0  0  0  0  0  0  0  0  0  0  0
   -0.0653    0.3212   -0.3301 C   0  0  0  0  0  0  0  0  0  0  0  0
   -2.5257    0.8578   -0.3371 C   0  0  0  0  0  0  0  0  0  0  0  0
    0.3465   -2.0336   -0.6630 C   0  0  0  0  0  0  0  0  0  0  0  0
    2.2605   -0.6254   -0.1589 C   0  0  0  0  0  0  0  0  0  0  0  0
   -2.6755    2.2888    0.1578 C   0  0  0  0  0  0  0  0  0  0  0  0
   -1.7599   -1.3239    0.3552 C   0  0  0  0  0  0  0  0  0  0  0  0
   -1.0919   -2.2549   -0.3022 C   0  0  0  0  0  0  0  0  0  0  0  0
    2.8514    0.5543    0.5278 C   0  0  0  0  0  0  0  0  0  0  0  0
    3.9438    1.0825   -0.0392 C   0  0  0  0  0  0  0  0  0  0  0  0
    0.5926   -0.9610    1.2094 H   0  0  0  0  0  0  0  0  0  0  0  0
   -1.3182    0.5503    1.3730 H   0  0  0  0  0  0  0  0  0  0  0  0
    0.3631    1.3154   -0.1420 H   0  0  0  0  0  0  0  0  0  0  0  0
   -0.2195    0.1991   -1.4326 H   0  0  0  0  0  0  0  0  0  0  0  0
   -3.4827    0.3435   -0.0564 H   0  0  0  0  0  0  0  0  0  0  0  0
   -2.4736    0.8443   -1.4378 H   0  0  0  0  0  0  0  0  0  0  0  0
    0.9834   -2.8976   -0.4194 H   0  0  0  0  0  0  0  0  0  0  0  0
    0.4084   -1.7196   -1.7357 H   0  0  0  0  0  0  0  0  0  0  0  0
    2.8009   -1.5149    0.2085 H   0  0  0  0  0  0  0  0  0  0  0  0
    2.4091   -0.5512   -1.2478 H   0  0  0  0  0  0  0  0  0  0  0  0
   -1.7526    2.8767    0.0299 H   0  0  0  0  0  0  0  0  0  0  0  0
   -3.0215    2.3373    1.2017 H   0  0  0  0  0  0  0  0  0  0  0  0
   -3.4634    2.7500   -0.4872 H   0  0  0  0  0  0  0  0  0  0  0  0
   -1.4489   -3.2917   -0.3224 H   0  0  0  0  0  0  0  0  0  0  0  0
   -2.8073   -1.5582    0.5857 H   0  0  0  0  0  0  0  0  0  0  0  0
    2.9137    0.4592    1.6205 H   0  0  0  0  0  0  0  0  0  0  0  0
    4.2603    0.8355   -1.0548 H   0  0  0  0  0  0  0  0  0  0  0  0
    4.5770    1.8131    0.4755 H   0  0  0  0  0  0  0  0  0  0  0  0
  1  5  1  0
  1  6  1  0
  1  3  1  0
  1 12  1  0
  2  8  1  0
  2  4  1  0
  2  3  1  0
  2 13  1  0
  3 15  1  0
  3 14  1  0
  4 16  1  0
  4  7  1  0
  4 17  1  0
  5 18  1  0
  5  9  1  0
  5 19  1  0
  6 21  1  0
  6 10  1  0
  6 20  1  0
  7 24  1  0
  7 22  1  0
  7 23  1  0
  8  9  2  0
  8 26  1  0
  9 25  1  0
 10 11  2  3
 10 27  1  0
 11 28  1  0
 11 29  1  0
M  END
