
     RDKit          3D

 22 22  0  0  0  0  0  0  0  0999 V2000
   -1.6372   -0.0227   -0.3134 C   0  0  0  0  0  0  0  0  0  0  0  0
    4.1318   -0.2374    0.3494 C   0  0  0  0  0  0  0  0  0  0  0  0
   -2.8667    0.8117   -0.1412 C   0  0  0  0  0  0  0  0  0  0  0  0
   -1.9577   -1.2928    0.3868 C   0  0  0  0  0  0  0  0  0  0  0  0
   -0.5071    0.7028    0.2967 C   0  0  0  0  0  0  0  0  0  0  0  0
    2.9423    0.5613   -0.0836 C   0  0  0  0  0  0  0  0  0  0  0  0
   -3.5830    0.2068    0.7962 C   0  0  0  0  0  0  0  0  0  0  0  0
   -3.2300   -1.2125    0.7719 C   0  0  0  0  0  0  0  0  0  0  0  0
    1.7516   -0.0360   -0.1628 C   0  0  0  0  0  0  0  0  0  0  0  0
    0.5952    0.8233   -0.4445 C   0  0  0  0  0  0  0  0  0  0  0  0
   -1.5243   -0.1650   -1.4099 H   0  0  0  0  0  0  0  0  0  0  0  0
    3.8546   -1.3129    0.4995 H   0  0  0  0  0  0  0  0  0  0  0  0
    4.9052   -0.2223   -0.4414 H   0  0  0  0  0  0  0  0  0  0  0  0
    4.5885    0.1642    1.2781 H   0  0  0  0  0  0  0  0  0  0  0  0
   -2.8260    1.8937   -0.2995 H   0  0  0  0  0  0  0  0  0  0  0  0
   -1.2041   -1.9983    0.7426 H   0  0  0  0  0  0  0  0  0  0  0  0
   -0.3148    0.5174    1.3582 H   0  0  0  0  0  0  0  0  0  0  0  0
    3.0091    1.6318    0.1231 H   0  0  0  0  0  0  0  0  0  0  0  0
   -4.5326    0.6111    1.1457 H   0  0  0  0  0  0  0  0  0  0  0  0
   -3.8566   -2.0873    0.9027 H   0  0  0  0  0  0  0  0  0  0  0  0
    0.6695    1.5970   -1.2050 H   0  0  0  0  0  0  0  0  0  0  0  0
    1.5922   -0.9338    0.4428 H   0  0  0  0  0  0  0  0  0  0  0  0
  1  4  1  0
  1  5  1  0
  1 11  1  0
  1  3  1  0
  2  6  1  0
  2 12  1  0
  2 14  1  0
  2 13  1  0
  3  7  2  0
  3 15  1  0
  4 16  1  0
  4  8  2  0
  5 17  1  0
  5 10  2  3
  6 18  1  0
  6  9  2  3
  7 19  1  0
  7  8  1  0
  8 20  1  0
  9 22  1  0
  9 10  1  0
 10 21  1  0
M  END
