
     RDKit          3D

 13 13  0  0  0  0  0  0  0  0999 V2000
   -0.2200    0.1324   -0.5811 C   0  0  0  0  0  0  0  0  0  0  0  0
   -1.5394   -0.4277   -0.0206 C   0  0  0  0  0  0  0  0  0  0  0  0
   -1.0680    0.9574    0.2855 C   0  0  0  0  0  0  0  0  0  0  0  0
    0.9641   -0.6031   -0.1242 C   0  0  0  0  0  0  0  0  0  0  0  0
    2.0845   -0.0807    0.3337 C   0  0  0  0  0  0  0  0  0  0  0  0
   -0.2211    0.3797   -1.6766 H   0  0  0  0  0  0  0  0  0  0  0  0
   -2.3408   -0.6126   -0.7575 H   0  0  0  0  0  0  0  0  0  0  0  0
   -1.4881   -1.1868    0.7822 H   0  0  0  0  0  0  0  0  0  0  0  0
   -1.5778    1.8349   -0.1967 H   0  0  0  0  0  0  0  0  0  0  0  0
   -0.8693    1.1447    1.3565 H   0  0  0  0  0  0  0  0  0  0  0  0
    0.9849   -1.6832   -0.3212 H   0  0  0  0  0  0  0  0  0  0  0  0
    2.5627    0.8166   -0.0791 H   0  0  0  0  0  0  0  0  0  0  0  0
    2.7281   -0.6716    0.9992 H   0  0  0  0  0  0  0  0  0  0  0  0
  1  3  1  0
  1  4  1  0
  1  6  1  0
  1  2  1  0
  2  7  1  0
  2  8  1  0
  2  3  1  0
  3  9  1  0
  3 10  1  0
  4 11  1  0
  4  5  2  3
  5 13  1  0
  5 12  1  0
M  END
