
     RDKit          3D

 13 13  0  0  0  0  0  0  0  0999 V2000
   -0.2208   -0.0603   -0.6821 C   0  0  0  0  0  0  0  0  0  0  0  0
   -1.5387   -0.3653   -0.1095 C   0  0  0  0  0  0  0  0  0  0  0  0
   -1.0092    0.9329    0.3172 C   0  0  0  0  0  0  0  0  0  0  0  0
    0.9623   -0.7383   -0.0581 C   0  0  0  0  0  0  0  0  0  0  0  0
    2.0602   -0.0591    0.2785 C   0  0  0  0  0  0  0  0  0  0  0  0
   -0.1619    0.3194   -1.7274 H   0  0  0  0  0  0  0  0  0  0  0  0
   -2.3781   -0.3019   -0.8389 H   0  0  0  0  0  0  0  0  0  0  0  0
   -1.5749   -1.1359    0.6954 H   0  0  0  0  0  0  0  0  0  0  0  0
   -1.4675    1.8169   -0.1816 H   0  0  0  0  0  0  0  0  0  0  0  0
   -0.6449    0.9688    1.3697 H   0  0  0  0  0  0  0  0  0  0  0  0
    0.9337   -1.8161    0.0954 H   0  0  0  0  0  0  0  0  0  0  0  0
    2.1292    1.0168    0.1247 H   0  0  0  0  0  0  0  0  0  0  0  0
    2.9106   -0.5780    0.7167 H   0  0  0  0  0  0  0  0  0  0  0  0
  1  3  1  0
  1  4  1  0
  1  6  1  0
  1  2  1  0
  2  7  1  0
  2  8  1  0
  2  3  1  0
  3  9  1  0
  3 10  1  0
  4 11  1  0
  4  5  2  3
  5 13  1  0
  5 12  1  0
M  END
