
     RDKit          3D

 27 28  0  0  0  0  0  0  0  0999 V2000
   -0.5693   -0.5208    0.3051 C   0  0  0  0  0  0  0  0  0  0  0  0
    0.7752   -1.2947    0.0580 C   0  0  0  0  0  0  0  0  0  0  0  0
    1.2544   -0.1089   -0.7755 C   0  0  0  0  0  0  0  0  0  0  0  0
   -0.1125    0.5057   -0.7393 C   0  0  0  0  0  0  0  0  0  0  0  0
   -1.8274   -1.3230   -0.0475 C   0  0  0  0  0  0  0  0  0  0  0  0
    1.7195   -1.4155    1.2593 C   0  0  0  0  0  0  0  0  0  0  0  0
   -3.0975   -0.4885    0.0729 C   0  0  0  0  0  0  0  0  0  0  0  0
    2.3352    0.4975    0.0632 C   0  0  0  0  0  0  0  0  0  0  0  0
    2.5877   -0.2116    1.1526 C   0  0  0  0  0  0  0  0  0  0  0  0
   -0.2287    1.9492   -0.3193 C   0  0  0  0  0  0  0  0  0  0  0  0
    0.2226    2.9401   -1.0914 C   0  0  0  0  0  0  0  0  0  0  0  0
    0.6717   -2.2330   -0.5380 H   0  0  0  0  0  0  0  0  0  0  0  0
   -0.6284   -0.1085    1.3420 H   0  0  0  0  0  0  0  0  0  0  0  0
    1.6123   -0.3899   -1.7936 H   0  0  0  0  0  0  0  0  0  0  0  0
   -0.6233    0.3585   -1.7220 H   0  0  0  0  0  0  0  0  0  0  0  0
   -1.9034   -2.1869    0.6523 H   0  0  0  0  0  0  0  0  0  0  0  0
   -1.7634   -1.7418   -1.0790 H   0  0  0  0  0  0  0  0  0  0  0  0
    1.1758   -1.4374    2.2311 H   0  0  0  0  0  0  0  0  0  0  0  0
    2.3535   -2.3272    1.1748 H   0  0  0  0  0  0  0  0  0  0  0  0
   -3.9861   -1.1173   -0.1611 H   0  0  0  0  0  0  0  0  0  0  0  0
   -3.2157   -0.0928    1.1074 H   0  0  0  0  0  0  0  0  0  0  0  0
   -3.0820    0.3660   -0.6413 H   0  0  0  0  0  0  0  0  0  0  0  0
    3.3536    0.0546    1.8781 H   0  0  0  0  0  0  0  0  0  0  0  0
    2.8664    1.4114   -0.1946 H   0  0  0  0  0  0  0  0  0  0  0  0
   -0.7099    2.2029    0.6244 H   0  0  0  0  0  0  0  0  0  0  0  0
    0.7019    2.7376   -2.0480 H   0  0  0  0  0  0  0  0  0  0  0  0
    0.1178    3.9746   -0.7707 H   0  0  0  0  0  0  0  0  0  0  0  0
  1 13  1  0
  1  2  1  0
  1  5  1  0
  1  4  1  0
  2  6  1  0
  2  3  1  0
  2 12  1  0
  3  4  1  0
  3  8  1  0
  3 14  1  0
  4 15  1  0
  4 10  1  0
  5 16  1  0
  5  7  1  0
  5 17  1  0
  6 19  1  0
  6 18  1  0
  6  9  1  0
  7 20  1  0
  7 22  1  0
  7 21  1  0
  8  9  2  0
  8 24  1  0
  9 23  1  0
 10 11  2  3
 10 25  1  0
 11 27  1  0
 11 26  1  0
M  END
