
     RDKit          3D

 22 22  0  0  0  0  0  0  0  0999 V2000
    0.4144   -0.2421    0.1719 C   0  0  0  0  0  0  0  0  0  0  0  0
   -0.7761   -0.2864   -0.7602 C   0  0  0  0  0  0  0  0  0  0  0  0
    0.1920   -1.0980    1.4013 C   0  0  0  0  0  0  0  0  0  0  0  0
   -1.2560    1.0893   -1.1026 C   0  0  0  0  0  0  0  0  0  0  0  0
   -1.9725   -0.8700   -0.1267 C   0  0  0  0  0  0  0  0  0  0  0  0
    1.6330   -0.6300   -0.5545 C   0  0  0  0  0  0  0  0  0  0  0  0
   -2.2601    1.3241   -0.2551 C   0  0  0  0  0  0  0  0  0  0  0  0
   -2.9542    0.0310   -0.1893 C   0  0  0  0  0  0  0  0  0  0  0  0
    3.7164    0.9113   -0.1234 C   0  0  0  0  0  0  0  0  0  0  0  0
    2.6842    0.1301   -0.3457 C   0  0  0  0  0  0  0  0  0  0  0  0
    0.4600    0.8150    0.5494 H   0  0  0  0  0  0  0  0  0  0  0  0
   -0.5626   -0.8352   -1.6901 H   0  0  0  0  0  0  0  0  0  0  0  0
    0.1709   -2.1779    1.1842 H   0  0  0  0  0  0  0  0  0  0  0  0
   -0.7624   -0.7573    1.8805 H   0  0  0  0  0  0  0  0  0  0  0  0
    1.0271   -0.8888    2.1121 H   0  0  0  0  0  0  0  0  0  0  0  0
   -0.5582    1.8406   -1.4816 H   0  0  0  0  0  0  0  0  0  0  0  0
   -2.0912   -1.9056    0.2078 H   0  0  0  0  0  0  0  0  0  0  0  0
   -2.5899    2.2837    0.1545 H   0  0  0  0  0  0  0  0  0  0  0  0
   -4.0144   -0.1158    0.0407 H   0  0  0  0  0  0  0  0  0  0  0  0
    1.6854   -1.1172   -1.5080 H   0  0  0  0  0  0  0  0  0  0  0  0
    3.5027    1.9712   -0.2699 H   0  0  0  0  0  0  0  0  0  0  0  0
    4.3116    0.5281    0.7047 H   0  0  0  0  0  0  0  0  0  0  0  0
  1  6  1  0
  1  2  1  0
  1 11  1  0
  1  3  1  0
  2 12  1  0
  2  5  1  0
  2  4  1  0
  3 15  1  0
  3 13  1  0
  3 14  1  0
  4  7  2  0
  4 16  1  0
  5 17  1  0
  5  8  2  0
  6 20  1  0
  6 10  2  3
  7 18  1  0
  7  8  1  0
  8 19  1  0
  9 21  1  0
  9 22  1  0
  9 10  2  3
M  END
