
     RDKit          3D

 24 25  0  0  0  0  0  0  0  0999 V2000
   -0.8436   -0.4770   -0.6638 C   0  0  0  0  0  0  0  0  0  0  0  0
   -1.4109   -0.9049    0.6816 C   0  0  0  0  0  0  0  0  0  0  0  0
   -0.0135    0.5048    0.1328 C   0  0  0  0  0  0  0  0  0  0  0  0
   -0.0488   -0.5284    1.2547 C   0  0  0  0  0  0  0  0  0  0  0  0
   -2.0477    0.1160   -1.3349 C   0  0  0  0  0  0  0  0  0  0  0  0
    3.4077   -0.2812   -0.1597 C   0  0  0  0  0  0  0  0  0  0  0  0
   -2.4180    0.1348    0.9538 C   0  0  0  0  0  0  0  0  0  0  0  0
    1.3098    0.8241   -0.4028 C   0  0  0  0  0  0  0  0  0  0  0  0
   -2.7446    0.7666   -0.1815 C   0  0  0  0  0  0  0  0  0  0  0  0
    2.1175   -0.1171   -0.9079 C   0  0  0  0  0  0  0  0  0  0  0  0
   -0.2928   -1.2525   -1.2156 H   0  0  0  0  0  0  0  0  0  0  0  0
   -1.7054   -1.9505    0.7785 H   0  0  0  0  0  0  0  0  0  0  0  0
   -0.6072    1.3925    0.3969 H   0  0  0  0  0  0  0  0  0  0  0  0
    0.7064   -1.3331    1.1786 H   0  0  0  0  0  0  0  0  0  0  0  0
   -0.1207   -0.0627    2.2612 H   0  0  0  0  0  0  0  0  0  0  0  0
   -2.6934   -0.7030   -1.7137 H   0  0  0  0  0  0  0  0  0  0  0  0
   -1.7693    0.8597   -2.1062 H   0  0  0  0  0  0  0  0  0  0  0  0
    3.8684   -1.2671   -0.3190 H   0  0  0  0  0  0  0  0  0  0  0  0
    3.2801   -0.0195    0.9225 H   0  0  0  0  0  0  0  0  0  0  0  0
    4.0948    0.4937   -0.5915 H   0  0  0  0  0  0  0  0  0  0  0  0
   -3.6154    1.4049   -0.3324 H   0  0  0  0  0  0  0  0  0  0  0  0
   -2.4266    0.6898    1.9026 H   0  0  0  0  0  0  0  0  0  0  0  0
    1.7508    1.7938   -0.1372 H   0  0  0  0  0  0  0  0  0  0  0  0
    2.2223   -0.0837   -2.0003 H   0  0  0  0  0  0  0  0  0  0  0  0
  1  3  1  0
  1 11  1  0
  1  2  1  0
  1  5  1  0
  2 12  1  0
  2  4  1  0
  2  7  1  0
  3  8  1  0
  3  4  1  0
  3 13  1  0
  4 15  1  0
  4 14  1  0
  5 17  1  0
  5  9  1  0
  5 16  1  0
  6 19  1  0
  6 20  1  0
  6 10  1  0
  6 18  1  0
  7  9  2  0
  7 22  1  0
  8 23  1  0
  8 10  2  3
  9 21  1  0
 10 24  1  0
M  END
