
     RDKit          3D

 24 24  0  0  0  0  0  0  0  0999 V2000
   -1.3994    0.3465   -0.0667 C   0  0  0  0  0  0  0  0  0  0  0  0
   -0.5230   -0.1060   -1.1945 C   0  0  0  0  0  0  0  0  0  0  0  0
    0.6127   -0.9155   -0.5840 C   0  0  0  0  0  0  0  0  0  0  0  0
    3.9712    0.5422    0.5099 C   0  0  0  0  0  0  0  0  0  0  0  0
   -2.6539    1.0026   -0.5170 C   0  0  0  0  0  0  0  0  0  0  0  0
   -1.9762   -0.8602    0.6076 C   0  0  0  0  0  0  0  0  0  0  0  0
    1.8941   -0.1764   -0.5783 C   0  0  0  0  0  0  0  0  0  0  0  0
    2.8187   -0.4043    0.3641 C   0  0  0  0  0  0  0  0  0  0  0  0
   -3.5516    0.7967    0.4489 C   0  0  0  0  0  0  0  0  0  0  0  0
   -3.0965   -0.4011    1.1697 C   0  0  0  0  0  0  0  0  0  0  0  0
   -0.8194    0.9790    0.6354 H   0  0  0  0  0  0  0  0  0  0  0  0
   -0.0852    0.7603   -1.7298 H   0  0  0  0  0  0  0  0  0  0  0  0
   -1.1592   -0.7496   -1.8600 H   0  0  0  0  0  0  0  0  0  0  0  0
    0.4024   -1.1822    0.4848 H   0  0  0  0  0  0  0  0  0  0  0  0
    0.6551   -1.8785   -1.1271 H   0  0  0  0  0  0  0  0  0  0  0  0
    4.4186    0.8103   -0.4701 H   0  0  0  0  0  0  0  0  0  0  0  0
    3.6233    1.4503    1.0405 H   0  0  0  0  0  0  0  0  0  0  0  0
    4.7343    0.0405    1.1358 H   0  0  0  0  0  0  0  0  0  0  0  0
   -2.8067    1.6446   -1.3889 H   0  0  0  0  0  0  0  0  0  0  0  0
   -1.8284   -1.9133    0.3451 H   0  0  0  0  0  0  0  0  0  0  0  0
    2.5591   -1.0187    1.2224 H   0  0  0  0  0  0  0  0  0  0  0  0
    2.0427    0.5838   -1.3265 H   0  0  0  0  0  0  0  0  0  0  0  0
   -4.3814    1.4360    0.7465 H   0  0  0  0  0  0  0  0  0  0  0  0
   -3.4515   -0.7871    2.1317 H   0  0  0  0  0  0  0  0  0  0  0  0
  1  5  1  0
  1 11  1  0
  1  2  1  0
  1  6  1  0
  2 12  1  0
  2  3  1  0
  2 13  1  0
  3  7  1  0
  3 15  1  0
  3 14  1  0
  4 18  1  0
  4 17  1  0
  4  8  1  0
  4 16  1  0
  5 19  1  0
  5  9  2  0
  6 10  2  0
  6 20  1  0
  7 22  1  0
  7  8  2  3
  8 21  1  0
  9 23  1  0
  9 10  1  0
 10 24  1  0
M  END
