
     RDKit          3D

 26 26  0  0  0  0  0  0  0  0999 V2000
   -0.3602    0.3712   -0.7916 C   0  0  0  0  0  0  0  0  0  0  0  0
    0.3000   -0.6781    0.1644 C   0  0  0  0  0  0  0  0  0  0  0  0
   -1.7048    0.0544   -0.1326 C   0  0  0  0  0  0  0  0  0  0  0  0
   -1.0204   -0.7408    0.9310 C   0  0  0  0  0  0  0  0  0  0  0  0
   -0.2657    0.0267   -2.2769 C   0  0  0  0  0  0  0  0  0  0  0  0
    3.8343    0.5945    1.0972 C   0  0  0  0  0  0  0  0  0  0  0  0
    1.4820   -0.1591    0.9389 C   0  0  0  0  0  0  0  0  0  0  0  0
   -2.4378    1.2708    0.3722 C   0  0  0  0  0  0  0  0  0  0  0  0
    2.6517    0.0838    0.3354 C   0  0  0  0  0  0  0  0  0  0  0  0
   -3.7109    1.5188    0.0572 C   0  0  0  0  0  0  0  0  0  0  0  0
   -0.0024    1.4132   -0.6022 H   0  0  0  0  0  0  0  0  0  0  0  0
    0.5258   -1.6569   -0.3241 H   0  0  0  0  0  0  0  0  0  0  0  0
   -2.3463   -0.6120   -0.7610 H   0  0  0  0  0  0  0  0  0  0  0  0
   -0.9925   -0.2434    1.9305 H   0  0  0  0  0  0  0  0  0  0  0  0
   -1.4144   -1.7802    1.0214 H   0  0  0  0  0  0  0  0  0  0  0  0
   -0.9024    0.7257   -2.8646 H   0  0  0  0  0  0  0  0  0  0  0  0
    0.7873    0.1376   -2.6208 H   0  0  0  0  0  0  0  0  0  0  0  0
   -0.5960   -1.0159   -2.4898 H   0  0  0  0  0  0  0  0  0  0  0  0
    4.1250   -0.1302    1.8913 H   0  0  0  0  0  0  0  0  0  0  0  0
    3.5983    1.5782    1.5628 H   0  0  0  0  0  0  0  0  0  0  0  0
    4.7007    0.7298    0.4113 H   0  0  0  0  0  0  0  0  0  0  0  0
    1.3882    0.0085    2.0119 H   0  0  0  0  0  0  0  0  0  0  0  0
   -1.9131    1.9779    1.0147 H   0  0  0  0  0  0  0  0  0  0  0  0
    2.7596   -0.0874   -0.7355 H   0  0  0  0  0  0  0  0  0  0  0  0
   -4.2037    2.4100    0.4412 H   0  0  0  0  0  0  0  0  0  0  0  0
   -4.2823    0.8482   -0.5826 H   0  0  0  0  0  0  0  0  0  0  0  0
  1 11  1  0
  1  5  1  0
  1  2  1  0
  1  3  1  0
  2  7  1  0
  2  4  1  0
  2 12  1  0
  3 13  1  0
  3  8  1  0
  3  4  1  0
  4 14  1  0
  4 15  1  0
  5 16  1  0
  5 18  1  0
  5 17  1  0
  6 20  1  0
  6 21  1  0
  6  9  1  0
  6 19  1  0
  7 22  1  0
  7  9  2  3
  8 10  2  3
  8 23  1  0
  9 24  1  0
 10 26  1  0
 10 25  1  0
M  END
