
     RDKit          3D

 11 11  0  0  0  0  0  0  0  0999 V2000
   -1.0527    0.0792   -0.2166 C   0  0  0  0  0  0  0  0  0  0  0  0
   -0.3566   -1.0336    0.5057 C   0  0  0  0  0  0  0  0  0  0  0  0
   -0.1335    1.2056    0.1396 C   0  0  0  0  0  0  0  0  0  0  0  0
    0.9372   -0.8123    0.2674 C   0  0  0  0  0  0  0  0  0  0  0  0
    1.0753    0.6402    0.0888 C   0  0  0  0  0  0  0  0  0  0  0  0
   -0.9393   -0.1428   -1.2915 H   0  0  0  0  0  0  0  0  0  0  0  0
   -2.0819    0.2299    0.1274 H   0  0  0  0  0  0  0  0  0  0  0  0
   -0.7911   -2.0362    0.5556 H   0  0  0  0  0  0  0  0  0  0  0  0
   -0.3833    2.2253   -0.1721 H   0  0  0  0  0  0  0  0  0  0  0  0
    1.7220   -1.5444    0.0481 H   0  0  0  0  0  0  0  0  0  0  0  0
    2.0040    1.1890   -0.0523 H   0  0  0  0  0  0  0  0  0  0  0  0
  1  3  1  0
  1  2  1  0
  1  6  1  0
  1  7  1  0
  2  8  1  0
  2  4  2  0
  3  5  2  0
  3  9  1  0
  4 10  1  0
  4  5  1  0
  5 11  1  0
M  END
