
     RDKit          3D

 19 19  0  0  0  0  0  0  0  0999 V2000
    0.3161   -0.3502    0.5049 C   0  0  0  0  0  0  0  0  0  0  0  0
   -0.8182   -0.7904   -0.5593 C   0  0  0  0  0  0  0  0  0  0  0  0
   -0.2963   -1.6862    0.4854 C   0  0  0  0  0  0  0  0  0  0  0  0
    1.7325   -0.2174   -0.0567 C   0  0  0  0  0  0  0  0  0  0  0  0
    1.9791    1.1916   -0.5795 C   0  0  0  0  0  0  0  0  0  0  0  0
   -2.1524   -0.1551   -0.3077 C   0  0  0  0  0  0  0  0  0  0  0  0
   -2.3468    1.1521   -0.4905 C   0  0  0  0  0  0  0  0  0  0  0  0
   -0.0019    0.3075    1.3475 H   0  0  0  0  0  0  0  0  0  0  0  0
   -0.4618   -0.9256   -1.6063 H   0  0  0  0  0  0  0  0  0  0  0  0
    2.4544   -0.4318    0.7641 H   0  0  0  0  0  0  0  0  0  0  0  0
    1.9426   -0.9432   -0.8773 H   0  0  0  0  0  0  0  0  0  0  0  0
    0.3300   -2.5209    0.0948 H   0  0  0  0  0  0  0  0  0  0  0  0
   -0.9732   -1.8925    1.3468 H   0  0  0  0  0  0  0  0  0  0  0  0
    1.2830    1.4279   -1.4167 H   0  0  0  0  0  0  0  0  0  0  0  0
    1.8428    1.9461    0.2287 H   0  0  0  0  0  0  0  0  0  0  0  0
    3.0221    1.2769   -0.9602 H   0  0  0  0  0  0  0  0  0  0  0  0
   -2.9872   -0.7815    0.0029 H   0  0  0  0  0  0  0  0  0  0  0  0
   -1.5369    1.8043   -0.8145 H   0  0  0  0  0  0  0  0  0  0  0  0
   -3.3282    1.5883   -0.3147 H   0  0  0  0  0  0  0  0  0  0  0  0
  1  2  1  0
  1  3  1  0
  1  4  1  0
  1  8  1  0
  2  3  1  0
  2  6  1  0
  2  9  1  0
  3 12  1  0
  3 13  1  0
  4 11  1  0
  4 10  1  0
  4  5  1  0
  5 16  1  0
  5 14  1  0
  5 15  1  0
  6  7  2  3
  6 17  1  0
  7 18  1  0
  7 19  1  0
M  END
