
     RDKit          3D

 27 27  0  0  0  0  0  0  0  0999 V2000
    0.3064    0.3486   -0.2938 C   0  0  0  0  0  0  0  0  0  0  0  0
   -1.2054    0.4275   -0.6283 C   0  0  0  0  0  0  0  0  0  0  0  0
    0.7051    1.2697    0.8829 C   0  0  0  0  0  0  0  0  0  0  0  0
    0.8035   -1.0964   -0.0524 C   0  0  0  0  0  0  0  0  0  0  0  0
    0.4478    2.7598    0.6672 C   0  0  0  0  0  0  0  0  0  0  0  0
   -2.1125   -0.1629    0.4106 C   0  0  0  0  0  0  0  0  0  0  0  0
   -1.6124   -0.3811   -1.8242 C   0  0  0  0  0  0  0  0  0  0  0  0
    2.3032   -1.2199   -0.0647 C   0  0  0  0  0  0  0  0  0  0  0  0
   -2.8566   -1.1295   -0.0997 C   0  0  0  0  0  0  0  0  0  0  0  0
   -2.5419   -1.2669   -1.5079 C   0  0  0  0  0  0  0  0  0  0  0  0
    2.9998   -1.6605    0.9857 C   0  0  0  0  0  0  0  0  0  0  0  0
    0.8377    0.7303   -1.1991 H   0  0  0  0  0  0  0  0  0  0  0  0
   -1.5144    1.4768   -0.8354 H   0  0  0  0  0  0  0  0  0  0  0  0
    0.1991    0.9479    1.8222 H   0  0  0  0  0  0  0  0  0  0  0  0
    1.7988    1.1768    1.0769 H   0  0  0  0  0  0  0  0  0  0  0  0
    0.4504   -1.7765   -0.8599 H   0  0  0  0  0  0  0  0  0  0  0  0
    0.3620   -1.4930    0.8924 H   0  0  0  0  0  0  0  0  0  0  0  0
   -0.6398    2.9940    0.6861 H   0  0  0  0  0  0  0  0  0  0  0  0
    0.9147    3.3465    1.4909 H   0  0  0  0  0  0  0  0  0  0  0  0
    0.8878    3.1067   -0.2953 H   0  0  0  0  0  0  0  0  0  0  0  0
   -2.1706    0.1593    1.4452 H   0  0  0  0  0  0  0  0  0  0  0  0
   -1.2052   -0.2611   -2.8231 H   0  0  0  0  0  0  0  0  0  0  0  0
    2.8401   -0.9376   -0.9695 H   0  0  0  0  0  0  0  0  0  0  0  0
   -3.5936   -1.7071    0.4483 H   0  0  0  0  0  0  0  0  0  0  0  0
   -2.9989   -1.9679   -2.1983 H   0  0  0  0  0  0  0  0  0  0  0  0
    2.5106   -1.9519    1.9137 H   0  0  0  0  0  0  0  0  0  0  0  0
    4.0842   -1.7317    0.9291 H   0  0  0  0  0  0  0  0  0  0  0  0
  1  4  1  0
  1  2  1  0
  1 12  1  0
  1  3  1  0
  2 13  1  0
  2  6  1  0
  2  7  1  0
  3  5  1  0
  3 15  1  0
  3 14  1  0
  4 17  1  0
  4  8  1  0
  4 16  1  0
  5 19  1  0
  5 18  1  0
  5 20  1  0
  6 21  1  0
  6  9  2  0
  7 10  2  0
  7 22  1  0
  8 23  1  0
  8 11  2  3
  9 24  1  0
  9 10  1  0
 10 25  1  0
 11 26  1  0
 11 27  1  0
M  END
