
     RDKit          3D

 27 27  0  0  0  0  0  0  0  0999 V2000
    0.2754    0.3473   -0.5654 C   0  0  0  0  0  0  0  0  0  0  0  0
   -1.2045    0.2187   -0.6185 C   0  0  0  0  0  0  0  0  0  0  0  0
    0.8169    0.9518    0.6932 C   0  0  0  0  0  0  0  0  0  0  0  0
    0.9522   -0.9999   -0.7676 C   0  0  0  0  0  0  0  0  0  0  0  0
    0.4512    2.4025    0.8759 C   0  0  0  0  0  0  0  0  0  0  0  0
   -1.8873    0.3182    0.6842 C   0  0  0  0  0  0  0  0  0  0  0  0
   -1.6736   -1.1194   -1.0838 C   0  0  0  0  0  0  0  0  0  0  0  0
    2.4154   -0.8608   -0.5968 C   0  0  0  0  0  0  0  0  0  0  0  0
   -3.0867   -0.2328    0.4896 C   0  0  0  0  0  0  0  0  0  0  0  0
   -2.8935   -1.2422   -0.5589 C   0  0  0  0  0  0  0  0  0  0  0  0
    3.1203   -1.4693    0.3472 C   0  0  0  0  0  0  0  0  0  0  0  0
    0.5936    0.9916   -1.4278 H   0  0  0  0  0  0  0  0  0  0  0  0
   -1.6868    0.9742   -1.2937 H   0  0  0  0  0  0  0  0  0  0  0  0
    0.5538    0.3180    1.5679 H   0  0  0  0  0  0  0  0  0  0  0  0
    1.9359    0.9212    0.6121 H   0  0  0  0  0  0  0  0  0  0  0  0
    0.7799   -1.3332   -1.8255 H   0  0  0  0  0  0  0  0  0  0  0  0
    0.5231   -1.7260   -0.0534 H   0  0  0  0  0  0  0  0  0  0  0  0
   -0.5130    2.6793    0.4203 H   0  0  0  0  0  0  0  0  0  0  0  0
    0.4933    2.5955    1.9799 H   0  0  0  0  0  0  0  0  0  0  0  0
    1.2217    3.0457    0.3722 H   0  0  0  0  0  0  0  0  0  0  0  0
   -1.6928    0.9270    1.5543 H   0  0  0  0  0  0  0  0  0  0  0  0
   -1.1028   -1.9933   -1.3776 H   0  0  0  0  0  0  0  0  0  0  0  0
    2.9247   -0.0967   -1.1939 H   0  0  0  0  0  0  0  0  0  0  0  0
   -4.0517    0.0628    0.9087 H   0  0  0  0  0  0  0  0  0  0  0  0
   -3.5758   -2.0591   -0.8122 H   0  0  0  0  0  0  0  0  0  0  0  0
    3.2810   -2.5536    0.3056 H   0  0  0  0  0  0  0  0  0  0  0  0
    3.0301   -1.0676    1.3641 H   0  0  0  0  0  0  0  0  0  0  0  0
  1  4  1  0
  1  2  1  0
  1 12  1  0
  1  3  1  0
  2 13  1  0
  2  6  1  0
  2  7  1  0
  3  5  1  0
  3 15  1  0
  3 14  1  0
  4 17  1  0
  4  8  1  0
  4 16  1  0
  5 19  1  0
  5 18  1  0
  5 20  1  0
  6 21  1  0
  6  9  2  0
  7 10  2  0
  7 22  1  0
  8 23  1  0
  8 11  2  3
  9 24  1  0
  9 10  1  0
 10 25  1  0
 11 26  1  0
 11 27  1  0
M  END
